m_22bba____14316652____9279318
b8Hydescor01032215413D 1   1.00000     0.00000     0
Hydescorer 1.1.2 b8048283
 57 59  0  0  0  0            999 V2000
   12.1483  -38.0970  -14.5374 Cl  0  0  0  0  0  0  0  0  0  0  0  0
   13.1872  -38.7656  -13.3179 C   0  0  0  0  0  0  0  0  0  0  0  0
   13.4704  -38.1101  -12.0920 C   0  0  0  0  0  0  0  0  0  0  0  0
   14.2096  -38.6663  -11.1360 N   0  0  0  0  0  0  0  0  0  0  0  0
   14.7324  -39.8774  -11.3470 C   0  0  0  0  0  0  0  0  0  0  0  0
   14.5295  -40.5970  -12.5339 C   0  0  0  0  0  0  0  0  0  0  0  0
   13.7387  -40.0167  -13.5398 C   0  0  0  0  0  0  0  0  0  0  0  0
   15.1454  -41.9142  -12.6742 C   0  0  0  0  0  0  0  0  0  0  0  0
   14.5321  -42.8814  -13.1016 O   0  0  0  0  0  0  0  0  0  0  0  0
   16.4636  -42.0923  -12.3272 N   0  0  0  0  0  0  0  0  0  0  0  0
   17.2319  -43.3582  -12.4098 C   0  0  1  0  0  0  0  0  0  0  0  0
   18.6133  -43.1442  -13.0937 C   0  0  2  0  0  0  0  0  0  0  0  0
   18.3736  -42.7514  -14.3886 F   0  0  0  0  0  0  0  0  0  0  0  0
   19.3164  -44.5124  -13.1738 C   0  0  0  0  0  0  0  0  0  0  0  0
   19.3874  -45.0339  -11.7901 N   0  0  0  0  0  0  0  0  0  0  0  0
   20.5884  -45.0311  -11.1149 C   0  0  0  0  0  0  0  0  0  0  0  0
   20.7287  -45.5997  -10.0415 O   0  0  0  0  0  0  0  0  0  0  0  0
   21.5924  -44.3613  -11.7176 O   0  0  0  0  0  0  0  0  0  0  0  0
   22.9361  -44.1614  -11.2373 C   0  0  0  0  0  0  0  0  0  0  0  0
   22.8279  -43.4054   -9.9114 C   0  0  0  0  0  0  0  0  0  0  0  0
   23.7389  -43.3022  -12.2210 C   0  0  0  0  0  0  0  0  0  0  0  0
   23.6214  -45.5072  -10.9728 C   0  0  0  0  0  0  0  0  0  0  0  0
   18.1004  -45.3045  -11.1245 C   0  0  0  0  0  0  0  0  0  0  0  0
   17.4200  -43.9300  -10.9886 C   0  0  0  0  0  0  0  0  0  0  0  0
   13.0114  -36.8563  -11.7360 N   0  0  0  0  0  0  0  0  0  0  0  0
   13.7777  -35.6756  -11.7464 C   0  0  0  0  0  0  0  0  0  0  0  0
   13.9594  -34.9502  -12.9268 C   0  0  0  0  0  0  0  0  0  0  0  0
   14.7317  -33.7933  -12.9067 C   0  0  0  0  0  0  0  0  0  0  0  0
   15.3249  -33.3701  -11.7137 C   0  0  0  0  0  0  0  0  0  0  0  0
   16.2859  -31.9316  -11.6908 Cl  0  0  0  0  0  0  0  0  0  0  0  0
   15.1460  -34.1060  -10.5386 C   0  0  0  0  0  0  0  0  0  0  0  0
   14.3731  -35.2624  -10.5535 C   0  0  0  0  0  0  0  0  0  0  0  0
   15.2926  -40.2887  -10.6279 H   0  0  0  0  0  0  0  0  0  0  0  0
   13.5768  -40.4986  -14.4010 H   0  0  0  0  0  0  0  0  0  0  0  0
   16.9524  -41.2896  -11.9857 H   0  0  0  0  0  0  0  0  0  0  0  0
   16.7067  -44.0151  -12.9508 H   0  0  0  0  0  0  0  0  0  0  0  0
   19.1680  -42.4730  -12.6018 H   0  0  0  0  0  0  0  0  0  0  0  0
   20.2369  -44.4058  -13.5499 H   0  0  0  0  0  0  0  0  0  0  0  0
   18.7907  -45.1370  -13.7512 H   0  0  0  0  0  0  0  0  0  0  0  0
   23.7437  -43.2459   -9.5429 H   0  0  0  0  0  0  0  0  0  0  0  0
   22.3726  -42.5282  -10.0640 H   0  0  0  0  0  0  0  0  0  0  0  0
   22.2966  -43.9479   -9.2607 H   0  0  0  0  0  0  0  0  0  0  0  0
   24.6671  -43.1745  -11.8715 H   0  0  0  0  0  0  0  0  0  0  0  0
   23.7773  -43.7602  -13.1091 H   0  0  0  0  0  0  0  0  0  0  0  0
   23.2960  -42.4116  -12.3242 H   0  0  0  0  0  0  0  0  0  0  0  0
   24.5512  -45.3482  -10.6408 H   0  0  0  0  0  0  0  0  0  0  0  0
   23.1039  -46.0152  -10.2843 H   0  0  0  0  0  0  0  0  0  0  0  0
   23.6563  -46.0359  -11.8209 H   0  0  0  0  0  0  0  0  0  0  0  0
   18.2501  -45.7124  -10.2239 H   0  0  0  0  0  0  0  0  0  0  0  0
   17.5407  -45.9195  -11.6801 H   0  0  0  0  0  0  0  0  0  0  0  0
   16.5311  -44.0325  -10.5420 H   0  0  0  0  0  0  0  0  0  0  0  0
   17.9959  -43.3167  -10.4480 H   0  0  0  0  0  0  0  0  0  0  0  0
   12.0569  -36.7817  -11.4474 H   0  0  0  0  0  0  0  0  0  0  0  0
   13.5377  -35.2600  -13.7789 H   0  0  0  0  0  0  0  0  0  0  0  0
   14.8625  -33.2647  -13.7454 H   0  0  0  0  0  0  0  0  0  0  0  0
   15.5736  -33.8012   -9.6876 H   0  0  0  0  0  0  0  0  0  0  0  0
   14.2449  -35.7936   -9.7160 H   0  0  0  0  0  0  0  0  0  0  0  0
  1  2  1  0  0  0  0
  2  3  2  0  0  0  0
  2  7  1  0  0  0  0
  3  4  1  0  0  0  0
  3 25  1  0  0  0  0
  4  5  2  0  0  0  0
  5  6  1  0  0  0  0
  5 33  1  0  0  0  0
  6  7  2  0  0  0  0
  6  8  1  0  0  0  0
  7 34  1  0  0  0  0
  8  9  2  0  0  0  0
  8 10  1  0  0  0  0
 10 11  1  0  0  0  0
 10 35  1  0  0  0  0
 11 12  1  0  0  0  0
 11 24  1  0  0  0  0
 11 36  1  0  0  0  0
 12 13  1  0  0  0  0
 12 14  1  0  0  0  0
 12 37  1  0  0  0  0
 14 15  1  0  0  0  0
 14 38  1  0  0  0  0
 14 39  1  0  0  0  0
 15 16  1  0  0  0  0
 15 23  1  0  0  0  0
 16 17  2  0  0  0  0
 16 18  1  0  0  0  0
 18 19  1  0  0  0  0
 19 20  1  0  0  0  0
 19 21  1  0  0  0  0
 19 22  1  0  0  0  0
 20 40  1  0  0  0  0
 20 41  1  0  0  0  0
 20 42  1  0  0  0  0
 21 43  1  0  0  0  0
 21 44  1  0  0  0  0
 21 45  1  0  0  0  0
 22 46  1  0  0  0  0
 22 47  1  0  0  0  0
 22 48  1  0  0  0  0
 23 24  1  0  0  0  0
 23 49  1  0  0  0  0
 23 50  1  0  0  0  0
 24 51  1  0  0  0  0
 24 52  1  0  0  0  0
 25 26  1  0  0  0  0
 25 53  1  0  0  0  0
 26 27  2  0  0  0  0
 26 32  1  0  0  0  0
 27 28  1  0  0  0  0
 27 54  1  0  0  0  0
 28 29  2  0  0  0  0
 28 55  1  0  0  0  0
 29 30  1  0  0  0  0
 29 31  1  0  0  0  0
 31 32  2  0  0  0  0
 31 56  1  0  0  0  0
 32 57  1  0  0  0  0
M  END
> <BIOSOLVEIT.HYDE_ESTIMATED_AFFINITY_LOWER_BOUNDARY [nM]>
203192637.256312

> <BIOSOLVEIT.HYDE_ESTIMATED_AFFINITY_UPPER_BOUNDARY [nM]>
20188389881.363850

> <BIOSOLVEIT.HYDE_LIGAND_EFFICIENCY range: ++, +, 0, -, -->
--

> <BIOSOLVEIT.HYDE_LIGAND_LIPOPHILIC_EFFICIENCY range: ++, +, 0, -, -->
--

> <BIOSOLVEIT.INTER_CLASH range: red, yellow, green>
green

> <BIOSOLVEIT.INTRA_CLASH range: red, yellow, green>
green

> <BIOSOLVEIT.LOGP>
5.2093

> <BIOSOLVEIT.MOLECULAR WEIGHT>
483.369

> <BIOSOLVEIT.MOLECULE_CHECKSUM>
MS43NDk1Mzsw

> <BIOSOLVEIT.TORSION_QUALITY range: red, yellow, green, not rotatable>
red

> <BIOSOLVEIT.TPSA>
83.56

$$$$
m_22bba____14316652____9279318
b8Hydescor01032215413D 1   1.00000     0.00000     0
Hydescorer 1.1.2 b8048283
 57 59  0  0  0  0            999 V2000
   17.4119  -35.5417  -14.6065 Cl  0  0  0  0  0  0  0  0  0  0  0  0
   18.4440  -36.2210  -13.3872 C   0  0  0  0  0  0  0  0  0  0  0  0
   18.1131  -36.2365  -12.0077 C   0  0  0  0  0  0  0  0  0  0  0  0
   18.8797  -36.8250  -11.0934 N   0  0  0  0  0  0  0  0  0  0  0  0
   20.0216  -37.3994  -11.4817 C   0  0  0  0  0  0  0  0  0  0  0  0
   20.4479  -37.4175  -12.8179 C   0  0  0  0  0  0  0  0  0  0  0  0
   19.6336  -36.8074  -13.7870 C   0  0  0  0  0  0  0  0  0  0  0  0
   21.7143  -38.0674  -13.1456 C   0  0  0  0  0  0  0  0  0  0  0  0
   22.7753  -37.7236  -12.6449 O   0  0  0  0  0  0  0  0  0  0  0  0
   21.7351  -39.1111  -14.0399 N   0  0  0  0  0  0  0  0  0  0  0  0
   22.9309  -39.8723  -14.4763 C   0  0  1  0  0  0  0  0  0  0  0  0
   22.7260  -41.4053  -14.3043 C   0  0  2  0  0  0  0  0  0  0  0  0
   22.5794  -41.6514  -12.9602 F   0  0  0  0  0  0  0  0  0  0  0  0
   24.0271  -42.1063  -14.7387 C   0  0  0  0  0  0  0  0  0  0  0  0
   24.2986  -41.6723  -16.1279 N   0  0  0  0  0  0  0  0  0  0  0  0
   24.0849  -42.5426  -17.1744 C   0  0  0  0  0  0  0  0  0  0  0  0
   24.6929  -42.4460  -18.2308 O   0  0  0  0  0  0  0  0  0  0  0  0
   23.1634  -43.5027  -16.9530 O   0  0  0  0  0  0  0  0  0  0  0  0
   22.7298  -44.5379  -17.8566 C   0  0  0  0  0  0  0  0  0  0  0  0
   23.9617  -45.3803  -18.1940 C   0  0  0  0  0  0  0  0  0  0  0  0
   22.1885  -43.9289  -19.1553 C   0  0  0  0  0  0  0  0  0  0  0  0
   21.6930  -45.4443  -17.1826 C   0  0  0  0  0  0  0  0  0  0  0  0
   24.5546  -40.2346  -16.3274 C   0  0  0  0  0  0  0  0  0  0  0  0
   23.2360  -39.5342  -15.9510 C   0  0  0  0  0  0  0  0  0  0  0  0
   16.9764  -35.6773  -11.4562 N   0  0  0  0  0  0  0  0  0  0  0  0
   16.7943  -34.3091  -11.1792 C   0  0  0  0  0  0  0  0  0  0  0  0
   16.8436  -33.3586  -12.2022 C   0  0  0  0  0  0  0  0  0  0  0  0
   16.6713  -32.0130  -11.8945 C   0  0  0  0  0  0  0  0  0  0  0  0
   16.4586  -31.6210  -10.5696 C   0  0  0  0  0  0  0  0  0  0  0  0
   16.2453  -29.9471  -10.1887 Cl  0  0  0  0  0  0  0  0  0  0  0  0
   16.4194  -32.5769   -9.5501 C   0  0  0  0  0  0  0  0  0  0  0  0
   16.5895  -33.9239   -9.8533 C   0  0  0  0  0  0  0  0  0  0  0  0
   20.5974  -37.8353  -10.7899 H   0  0  0  0  0  0  0  0  0  0  0  0
   19.9080  -36.7968  -14.7485 H   0  0  0  0  0  0  0  0  0  0  0  0
   20.8579  -39.3841  -14.4350 H   0  0  0  0  0  0  0  0  0  0  0  0
   23.7102  -39.5900  -13.9167 H   0  0  0  0  0  0  0  0  0  0  0  0
   21.9389  -41.7328  -14.8269 H   0  0  0  0  0  0  0  0  0  0  0  0
   23.9122  -43.0991  -14.7037 H   0  0  0  0  0  0  0  0  0  0  0  0
   24.7809  -41.8366  -14.1395 H   0  0  0  0  0  0  0  0  0  0  0  0
   23.7021  -46.1137  -18.8223 H   0  0  0  0  0  0  0  0  0  0  0  0
   24.6536  -44.8013  -18.6253 H   0  0  0  0  0  0  0  0  0  0  0  0
   24.3346  -45.7766  -17.3550 H   0  0  0  0  0  0  0  0  0  0  0  0
   21.8929  -44.6610  -19.7690 H   0  0  0  0  0  0  0  0  0  0  0  0
   21.4115  -43.3350  -18.9464 H   0  0  0  0  0  0  0  0  0  0  0  0
   22.9079  -43.3934  -19.5976 H   0  0  0  0  0  0  0  0  0  0  0  0
   21.4046  -46.1552  -17.8240 H   0  0  0  0  0  0  0  0  0  0  0  0
   22.0982  -45.8698  -16.3734 H   0  0  0  0  0  0  0  0  0  0  0  0
   20.9001  -44.8991  -16.9108 H   0  0  0  0  0  0  0  0  0  0  0  0
   24.7903  -40.0494  -17.2814 H   0  0  0  0  0  0  0  0  0  0  0  0
   25.2978  -39.9250  -15.7343 H   0  0  0  0  0  0  0  0  0  0  0  0
   23.3321  -38.5449  -16.0610 H   0  0  0  0  0  0  0  0  0  0  0  0
   22.4956  -39.8644  -16.5365 H   0  0  0  0  0  0  0  0  0  0  0  0
   16.2214  -36.2949  -11.2359 H   0  0  0  0  0  0  0  0  0  0  0  0
   17.0015  -33.6433  -13.1478 H   0  0  0  0  0  0  0  0  0  0  0  0
   16.6995  -31.3262  -12.6208 H   0  0  0  0  0  0  0  0  0  0  0  0
   16.2691  -32.2925   -8.6033 H   0  0  0  0  0  0  0  0  0  0  0  0
   16.5653  -34.6107   -9.1271 H   0  0  0  0  0  0  0  0  0  0  0  0
  1  2  1  0  0  0  0
  2  3  2  0  0  0  0
  2  7  1  0  0  0  0
  3  4  1  0  0  0  0
  3 25  1  0  0  0  0
  4  5  2  0  0  0  0
  5  6  1  0  0  0  0
  5 33  1  0  0  0  0
  6  7  2  0  0  0  0
  6  8  1  0  0  0  0
  7 34  1  0  0  0  0
  8  9  2  0  0  0  0
  8 10  1  0  0  0  0
 10 11  1  0  0  0  0
 10 35  1  0  0  0  0
 11 12  1  0  0  0  0
 11 24  1  0  0  0  0
 11 36  1  0  0  0  0
 12 13  1  0  0  0  0
 12 14  1  0  0  0  0
 12 37  1  0  0  0  0
 14 15  1  0  0  0  0
 14 38  1  0  0  0  0
 14 39  1  0  0  0  0
 15 16  1  0  0  0  0
 15 23  1  0  0  0  0
 16 17  2  0  0  0  0
 16 18  1  0  0  0  0
 18 19  1  0  0  0  0
 19 20  1  0  0  0  0
 19 21  1  0  0  0  0
 19 22  1  0  0  0  0
 20 40  1  0  0  0  0
 20 41  1  0  0  0  0
 20 42  1  0  0  0  0
 21 43  1  0  0  0  0
 21 44  1  0  0  0  0
 21 45  1  0  0  0  0
 22 46  1  0  0  0  0
 22 47  1  0  0  0  0
 22 48  1  0  0  0  0
 23 24  1  0  0  0  0
 23 49  1  0  0  0  0
 23 50  1  0  0  0  0
 24 51  1  0  0  0  0
 24 52  1  0  0  0  0
 25 26  1  0  0  0  0
 25 53  1  0  0  0  0
 26 27  2  0  0  0  0
 26 32  1  0  0  0  0
 27 28  1  0  0  0  0
 27 54  1  0  0  0  0
 28 29  2  0  0  0  0
 28 55  1  0  0  0  0
 29 30  1  0  0  0  0
 29 31  1  0  0  0  0
 31 32  2  0  0  0  0
 31 56  1  0  0  0  0
 32 57  1  0  0  0  0
M  END
> <BIOSOLVEIT.HYDE_ESTIMATED_AFFINITY_LOWER_BOUNDARY [nM]>
56166.626285

> <BIOSOLVEIT.HYDE_ESTIMATED_AFFINITY_UPPER_BOUNDARY [nM]>
5580486.404779

> <BIOSOLVEIT.HYDE_LIGAND_EFFICIENCY range: ++, +, 0, -, -->
--

> <BIOSOLVEIT.HYDE_LIGAND_LIPOPHILIC_EFFICIENCY range: ++, +, 0, -, -->
--

> <BIOSOLVEIT.INTER_CLASH range: red, yellow, green>
green

> <BIOSOLVEIT.INTRA_CLASH range: red, yellow, green>
green

> <BIOSOLVEIT.LOGP>
5.2093

> <BIOSOLVEIT.MOLECULAR WEIGHT>
483.369

> <BIOSOLVEIT.MOLECULE_CHECKSUM>
LTE4LjU2MjswLjU4MDA2Mw==

> <BIOSOLVEIT.TORSION_QUALITY range: red, yellow, green, not rotatable>
red

> <BIOSOLVEIT.TPSA>
83.56

$$$$
m_22bba____14316652____9279318
b8Hydescor01032215413D 1   1.00000     0.00000     0
Hydescorer 1.1.2 b8048283
 57 59  0  0  0  0            999 V2000
   18.3630  -40.0925  -13.8629 Cl  0  0  0  0  0  0  0  0  0  0  0  0
   19.6448  -40.2760  -12.7067 C   0  0  0  0  0  0  0  0  0  0  0  0
   20.5279  -39.2244  -12.3504 C   0  0  0  0  0  0  0  0  0  0  0  0
   21.4592  -39.3583  -11.4098 N   0  0  0  0  0  0  0  0  0  0  0  0
   21.5906  -40.5371  -10.7952 C   0  0  0  0  0  0  0  0  0  0  0  0
   20.7818  -41.6440  -11.0921 C   0  0  0  0  0  0  0  0  0  0  0  0
   19.7893  -41.5009  -12.0763 C   0  0  0  0  0  0  0  0  0  0  0  0
   21.0030  -42.8935  -10.3688 C   0  0  0  0  0  0  0  0  0  0  0  0
   20.0828  -43.5663   -9.9275 O   0  0  0  0  0  0  0  0  0  0  0  0
   22.2843  -43.3524  -10.1741 N   0  0  0  0  0  0  0  0  0  0  0  0
   22.6756  -44.5948   -9.4650 C   0  0  1  0  0  0  0  0  0  0  0  0
   24.0572  -45.1196   -9.9527 C   0  0  2  0  0  0  0  0  0  0  0  0
   23.9237  -45.4558  -11.2784 F   0  0  0  0  0  0  0  0  0  0  0  0
   24.3580  -46.4276   -9.1968 C   0  0  0  0  0  0  0  0  0  0  0  0
   24.2947  -46.1068   -7.7531 N   0  0  0  0  0  0  0  0  0  0  0  0
   25.4560  -46.0160   -7.0171 C   0  0  0  0  0  0  0  0  0  0  0  0
   26.5562  -45.9651   -7.5481 O   0  0  0  0  0  0  0  0  0  0  0  0
   25.2947  -45.9874   -5.6780 O   0  0  0  0  0  0  0  0  0  0  0  0
   26.3150  -45.8794   -4.6664 C   0  0  0  0  0  0  0  0  0  0  0  0
   27.0188  -44.5383   -4.8837 C   0  0  0  0  0  0  0  0  0  0  0  0
   27.3493  -47.0005   -4.8211 C   0  0  0  0  0  0  0  0  0  0  0  0
   25.6898  -45.8770   -3.2663 C   0  0  0  0  0  0  0  0  0  0  0  0
   22.9882  -45.6598   -7.2374 C   0  0  0  0  0  0  0  0  0  0  0  0
   22.7115  -44.3214   -7.9464 C   0  0  0  0  0  0  0  0  0  0  0  0
   20.5207  -37.9581  -12.9032 N   0  0  0  0  0  0  0  0  0  0  0  0
   19.5140  -36.9926  -12.7135 C   0  0  0  0  0  0  0  0  0  0  0  0
   19.1119  -36.1615  -13.7624 C   0  0  0  0  0  0  0  0  0  0  0  0
   18.1225  -35.2094  -13.5399 C   0  0  0  0  0  0  0  0  0  0  0  0
   17.5449  -35.0850  -12.2731 C   0  0  0  0  0  0  0  0  0  0  0  0
   16.3151  -33.8998  -11.9981 Cl  0  0  0  0  0  0  0  0  0  0  0  0
   17.9586  -35.9140  -11.2261 C   0  0  0  0  0  0  0  0  0  0  0  0
   18.9465  -36.8688  -11.4442 C   0  0  0  0  0  0  0  0  0  0  0  0
   22.2961  -40.6346  -10.0932 H   0  0  0  0  0  0  0  0  0  0  0  0
   19.1975  -42.2701  -12.3175 H   0  0  0  0  0  0  0  0  0  0  0  0
   23.0250  -42.7936  -10.5471 H   0  0  0  0  0  0  0  0  0  0  0  0
   21.9862  -45.2961   -9.6465 H   0  0  0  0  0  0  0  0  0  0  0  0
   24.7785  -44.4406   -9.8156 H   0  0  0  0  0  0  0  0  0  0  0  0
   25.2694  -46.7625   -9.4362 H   0  0  0  0  0  0  0  0  0  0  0  0
   23.6767  -47.1228   -9.4259 H   0  0  0  0  0  0  0  0  0  0  0  0
   27.7379  -44.4243   -4.1982 H   0  0  0  0  0  0  0  0  0  0  0  0
   27.4237  -44.5187   -5.7979 H   0  0  0  0  0  0  0  0  0  0  0  0
   26.3549  -43.7955   -4.7972 H   0  0  0  0  0  0  0  0  0  0  0  0
   28.0482  -46.9094   -4.1116 H   0  0  0  0  0  0  0  0  0  0  0  0
   26.8960  -47.8872   -4.7305 H   0  0  0  0  0  0  0  0  0  0  0  0
   27.7785  -46.9360   -5.7220 H   0  0  0  0  0  0  0  0  0  0  0  0
   26.4121  -45.8016   -2.5788 H   0  0  0  0  0  0  0  0  0  0  0  0
   25.0661  -45.1000   -3.1812 H   0  0  0  0  0  0  0  0  0  0  0  0
   25.1835  -46.7278   -3.1259 H   0  0  0  0  0  0  0  0  0  0  0  0
   23.0279  -45.5302   -6.2466 H   0  0  0  0  0  0  0  0  0  0  0  0
   22.2770  -46.3272   -7.4580 H   0  0  0  0  0  0  0  0  0  0  0  0
   21.8323  -43.9519   -7.6458 H   0  0  0  0  0  0  0  0  0  0  0  0
   23.4377  -43.6672   -7.7350 H   0  0  0  0  0  0  0  0  0  0  0  0
   21.2938  -37.7069  -13.4856 H   0  0  0  0  0  0  0  0  0  0  0  0
   19.5319  -36.2505  -14.6655 H   0  0  0  0  0  0  0  0  0  0  0  0
   17.8244  -34.6141  -14.2861 H   0  0  0  0  0  0  0  0  0  0  0  0
   17.5444  -35.8206  -10.3207 H   0  0  0  0  0  0  0  0  0  0  0  0
   19.2477  -37.4618  -10.6975 H   0  0  0  0  0  0  0  0  0  0  0  0
  1  2  1  0  0  0  0
  2  3  2  0  0  0  0
  2  7  1  0  0  0  0
  3  4  1  0  0  0  0
  3 25  1  0  0  0  0
  4  5  2  0  0  0  0
  5  6  1  0  0  0  0
  5 33  1  0  0  0  0
  6  7  2  0  0  0  0
  6  8  1  0  0  0  0
  7 34  1  0  0  0  0
  8  9  2  0  0  0  0
  8 10  1  0  0  0  0
 10 11  1  0  0  0  0
 10 35  1  0  0  0  0
 11 12  1  0  0  0  0
 11 24  1  0  0  0  0
 11 36  1  0  0  0  0
 12 13  1  0  0  0  0
 12 14  1  0  0  0  0
 12 37  1  0  0  0  0
 14 15  1  0  0  0  0
 14 38  1  0  0  0  0
 14 39  1  0  0  0  0
 15 16  1  0  0  0  0
 15 23  1  0  0  0  0
 16 17  2  0  0  0  0
 16 18  1  0  0  0  0
 18 19  1  0  0  0  0
 19 20  1  0  0  0  0
 19 21  1  0  0  0  0
 19 22  1  0  0  0  0
 20 40  1  0  0  0  0
 20 41  1  0  0  0  0
 20 42  1  0  0  0  0
 21 43  1  0  0  0  0
 21 44  1  0  0  0  0
 21 45  1  0  0  0  0
 22 46  1  0  0  0  0
 22 47  1  0  0  0  0
 22 48  1  0  0  0  0
 23 24  1  0  0  0  0
 23 49  1  0  0  0  0
 23 50  1  0  0  0  0
 24 51  1  0  0  0  0
 24 52  1  0  0  0  0
 25 26  1  0  0  0  0
 25 53  1  0  0  0  0
 26 27  2  0  0  0  0
 26 32  1  0  0  0  0
 27 28  1  0  0  0  0
 27 54  1  0  0  0  0
 28 29  2  0  0  0  0
 28 55  1  0  0  0  0
 29 30  1  0  0  0  0
 29 31  1  0  0  0  0
 31 32  2  0  0  0  0
 31 56  1  0  0  0  0
 32 57  1  0  0  0  0
M  END
> <BIOSOLVEIT.HYDE_ESTIMATED_AFFINITY_LOWER_BOUNDARY [nM]>
891607.091947

> <BIOSOLVEIT.HYDE_ESTIMATED_AFFINITY_UPPER_BOUNDARY [nM]>
88586436.183235

> <BIOSOLVEIT.HYDE_LIGAND_EFFICIENCY range: ++, +, 0, -, -->
--

> <BIOSOLVEIT.HYDE_LIGAND_LIPOPHILIC_EFFICIENCY range: ++, +, 0, -, -->
--

> <BIOSOLVEIT.INTER_CLASH range: red, yellow, green>
green

> <BIOSOLVEIT.INTRA_CLASH range: red, yellow, green>
green

> <BIOSOLVEIT.LOGP>
5.2093

> <BIOSOLVEIT.MOLECULAR WEIGHT>
483.369

> <BIOSOLVEIT.MOLECULE_CHECKSUM>
LTExLjcwODQ7MC4zNjU4ODk=

> <BIOSOLVEIT.TORSION_QUALITY range: red, yellow, green, not rotatable>
yellow

> <BIOSOLVEIT.TPSA>
83.56

$$$$
PV-001802957486.****
b8Hydescor01032215413D 1   1.00000     0.00000     0
Hydescorer 1.1.2 b8048283
 41 43  0  0  0  0            999 V2000
   16.9540  -34.4988  -10.0090 C   0  0  0  0  0  0  0  0  0  0  0  0
   17.8994  -35.3228  -10.6209 C   0  0  0  0  0  0  0  0  0  0  0  0
   17.9023  -35.4474  -12.0192 C   0  0  0  0  0  0  0  0  0  0  0  0
   16.9625  -34.7432  -12.7729 C   0  0  0  0  0  0  0  0  0  0  0  0
   16.0243  -33.9233  -12.1528 C   0  0  0  0  0  0  0  0  0  0  0  0
   16.0225  -33.8023  -10.7696 C   0  0  0  0  0  0  0  0  0  0  0  0
   18.8891  -36.0662   -9.7396 C   0  0  0  0  0  0  0  0  0  0  0  0
   14.7595  -32.9746  -13.1921 Br  0  0  0  0  0  0  0  0  0  0  0  0
   18.9254  -36.3024  -12.7654 C   0  0  0  0  0  0  0  0  0  0  0  0
   18.2237  -37.5530  -13.2633 C   0  0  0  0  0  0  0  0  0  0  0  0
   17.9683  -38.5504  -12.3529 N   0  0  0  0  0  0  0  0  0  0  0  0
   17.8974  -37.6825  -14.4254 O   0  0  0  0  0  0  0  0  0  0  0  0
   17.3322  -39.7876  -12.5955 C   0  0  0  0  0  0  0  0  0  0  0  0
   16.0628  -40.0661  -12.0905 C   0  0  0  0  0  0  0  0  0  0  0  0
   15.4910  -41.2994  -12.3896 C   0  0  0  0  0  0  0  0  0  0  0  0
   16.1634  -42.2609  -13.1482 C   0  0  0  0  0  0  0  0  0  0  0  0
   17.4419  -41.9712  -13.6235 C   0  0  0  0  0  0  0  0  0  0  0  0
   18.0283  -40.7364  -13.3495 C   0  0  0  0  0  0  0  0  0  0  0  0
   14.1711  -41.5865  -11.9105 N   0  0  0  0  0  0  0  0  0  0  0  0
   13.0701  -40.8289  -12.0268 C   0  0  0  0  0  0  0  0  0  0  0  0
   12.0754  -41.4394  -11.4717 N   0  0  0  0  0  0  0  0  0  0  0  0
   12.5441  -42.6365  -10.9776 N   0  0  0  0  0  0  0  0  0  0  0  0
   13.8019  -42.6902  -11.2586 C   0  0  0  0  0  0  0  0  0  0  0  0
   13.0529  -39.4776  -12.7093 C   0  0  0  0  0  0  0  0  0  0  0  0
   16.9467  -34.4086   -9.0131 H   0  0  0  0  0  0  0  0  0  0  0  0
   16.9630  -34.8286  -13.7692 H   0  0  0  0  0  0  0  0  0  0  0  0
   15.3505  -33.2135  -10.3204 H   0  0  0  0  0  0  0  0  0  0  0  0
   19.5002  -36.6127  -10.3121 H   0  0  0  0  0  0  0  0  0  0  0  0
   19.4263  -35.4076   -9.2126 H   0  0  0  0  0  0  0  0  0  0  0  0
   18.3921  -36.6675   -9.1139 H   0  0  0  0  0  0  0  0  0  0  0  0
   19.6704  -36.5550  -12.1480 H   0  0  0  0  0  0  0  0  0  0  0  0
   19.2943  -35.7896  -13.5407 H   0  0  0  0  0  0  0  0  0  0  0  0
   18.2663  -38.3810  -11.4135 H   0  0  0  0  0  0  0  0  0  0  0  0
   15.5760  -39.3976  -11.5284 H   0  0  0  0  0  0  0  0  0  0  0  0
   15.7349  -43.1423  -13.3470 H   0  0  0  0  0  0  0  0  0  0  0  0
   17.9395  -42.6510  -14.1624 H   0  0  0  0  0  0  0  0  0  0  0  0
   18.9450  -40.5301  -13.6917 H   0  0  0  0  0  0  0  0  0  0  0  0
   14.4106  -43.4476  -11.0224 H   0  0  0  0  0  0  0  0  0  0  0  0
   12.1279  -39.0991  -12.6759 H   0  0  0  0  0  0  0  0  0  0  0  0
   13.6832  -38.8592  -12.2400 H   0  0  0  0  0  0  0  0  0  0  0  0
   13.3362  -39.5820  -13.6626 H   0  0  0  0  0  0  0  0  0  0  0  0
  1  2  2  0  0  0  0
  1  6  1  0  0  0  0
  1 25  1  0  0  0  0
  2  3  1  0  0  0  0
  2  7  1  0  0  0  0
  3  4  2  0  0  0  0
  3  9  1  0  0  0  0
  4  5  1  0  0  0  0
  4 26  1  0  0  0  0
  5  6  2  0  0  0  0
  5  8  1  0  0  0  0
  6 27  1  0  0  0  0
  7 28  1  0  0  0  0
  7 29  1  0  0  0  0
  7 30  1  0  0  0  0
  9 10  1  0  0  0  0
  9 31  1  0  0  0  0
  9 32  1  0  0  0  0
 10 11  1  0  0  0  0
 10 12  2  0  0  0  0
 11 13  1  0  0  0  0
 11 33  1  0  0  0  0
 13 14  2  0  0  0  0
 13 18  1  0  0  0  0
 14 15  1  0  0  0  0
 14 34  1  0  0  0  0
 15 16  2  0  0  0  0
 15 19  1  0  0  0  0
 16 17  1  0  0  0  0
 16 35  1  0  0  0  0
 17 18  2  0  0  0  0
 17 36  1  0  0  0  0
 18 37  1  0  0  0  0
 19 20  1  0  0  0  0
 19 23  1  0  0  0  0
 20 21  2  0  0  0  0
 20 24  1  0  0  0  0
 21 22  1  0  0  0  0
 22 23  2  0  0  0  0
 23 38  1  0  0  0  0
 24 39  1  0  0  0  0
 24 40  1  0  0  0  0
 24 41  1  0  0  0  0
M  END
> <BIOSOLVEIT.HYDE_ESTIMATED_AFFINITY_LOWER_BOUNDARY [nM]>
410026549.026931

> <BIOSOLVEIT.HYDE_ESTIMATED_AFFINITY_UPPER_BOUNDARY [nM]>
40738561914.642944

> <BIOSOLVEIT.HYDE_LIGAND_EFFICIENCY range: ++, +, 0, -, -->
--

> <BIOSOLVEIT.HYDE_LIGAND_LIPOPHILIC_EFFICIENCY range: ++, +, 0, -, -->
--

> <BIOSOLVEIT.INTER_CLASH range: red, yellow, green>
green

> <BIOSOLVEIT.INTRA_CLASH range: red, yellow, green>
green

> <BIOSOLVEIT.LOGP>
3.82784

> <BIOSOLVEIT.MOLECULAR WEIGHT>
385.263

> <BIOSOLVEIT.MOLECULE_CHECKSUM>
My40ODk5Mzsw

> <BIOSOLVEIT.TORSION_QUALITY range: red, yellow, green, not rotatable>
yellow

> <BIOSOLVEIT.TPSA>
59.81

$$$$
PV-001802957486.****
b8Hydescor01032215413D 1   1.00000     0.00000     0
Hydescorer 1.1.2 b8048283
 41 43  0  0  0  0            999 V2000
   14.9203  -34.5964   -9.5708 C   0  0  0  0  0  0  0  0  0  0  0  0
   15.7685  -35.6555   -9.8962 C   0  0  0  0  0  0  0  0  0  0  0  0
   16.8383  -35.4353  -10.7780 C   0  0  0  0  0  0  0  0  0  0  0  0
   17.0370  -34.1610  -11.3112 C   0  0  0  0  0  0  0  0  0  0  0  0
   16.1856  -33.1112  -10.9795 C   0  0  0  0  0  0  0  0  0  0  0  0
   15.1275  -33.3315  -10.1079 C   0  0  0  0  0  0  0  0  0  0  0  0
   15.4903  -37.0187   -9.2853 C   0  0  0  0  0  0  0  0  0  0  0  0
   16.4727  -31.3899  -11.7108 Br  0  0  0  0  0  0  0  0  0  0  0  0
   17.8302  -36.5340  -11.1568 C   0  0  0  0  0  0  0  0  0  0  0  0
   17.1457  -37.4728  -12.1340 C   0  0  0  0  0  0  0  0  0  0  0  0
   17.6814  -38.7275  -12.3000 N   0  0  0  0  0  0  0  0  0  0  0  0
   16.1597  -37.1374  -12.7578 O   0  0  0  0  0  0  0  0  0  0  0  0
   17.2112  -39.7529  -13.1493 C   0  0  0  0  0  0  0  0  0  0  0  0
   16.4053  -40.7846  -12.6698 C   0  0  0  0  0  0  0  0  0  0  0  0
   15.9625  -41.7480  -13.5716 C   0  0  0  0  0  0  0  0  0  0  0  0
   16.3270  -41.7204  -14.9200 C   0  0  0  0  0  0  0  0  0  0  0  0
   17.1532  -40.6930  -15.3740 C   0  0  0  0  0  0  0  0  0  0  0  0
   17.5963  -39.7084  -14.4921 C   0  0  0  0  0  0  0  0  0  0  0  0
   15.1019  -42.7936  -13.1025 N   0  0  0  0  0  0  0  0  0  0  0  0
   14.0224  -42.6800  -12.3141 C   0  0  0  0  0  0  0  0  0  0  0  0
   13.5117  -43.8521  -12.1238 N   0  0  0  0  0  0  0  0  0  0  0  0
   14.2846  -44.7603  -12.8129 N   0  0  0  0  0  0  0  0  0  0  0  0
   15.2265  -44.0911  -13.3862 C   0  0  0  0  0  0  0  0  0  0  0  0
   13.5260  -41.3613  -11.7605 C   0  0  0  0  0  0  0  0  0  0  0  0
   14.1556  -34.7492   -8.9448 H   0  0  0  0  0  0  0  0  0  0  0  0
   17.7993  -34.0004  -11.9382 H   0  0  0  0  0  0  0  0  0  0  0  0
   14.5142  -32.5796   -9.8664 H   0  0  0  0  0  0  0  0  0  0  0  0
   16.1743  -37.6737   -9.6063 H   0  0  0  0  0  0  0  0  0  0  0  0
   15.5343  -36.9525   -8.2884 H   0  0  0  0  0  0  0  0  0  0  0  0
   14.5793  -37.3270   -9.5590 H   0  0  0  0  0  0  0  0  0  0  0  0
   18.1054  -37.0387  -10.3386 H   0  0  0  0  0  0  0  0  0  0  0  0
   18.6374  -36.1284  -11.5857 H   0  0  0  0  0  0  0  0  0  0  0  0
   18.4955  -38.9378  -11.7587 H   0  0  0  0  0  0  0  0  0  0  0  0
   16.1520  -40.8312  -11.7035 H   0  0  0  0  0  0  0  0  0  0  0  0
   16.0007  -42.4258  -15.5492 H   0  0  0  0  0  0  0  0  0  0  0  0
   17.4286  -40.6624  -16.3349 H   0  0  0  0  0  0  0  0  0  0  0  0
   18.1884  -38.9720  -14.8194 H   0  0  0  0  0  0  0  0  0  0  0  0
   15.9444  -44.4867  -13.9590 H   0  0  0  0  0  0  0  0  0  0  0  0
   12.7114  -41.5195  -11.2024 H   0  0  0  0  0  0  0  0  0  0  0  0
   14.2404  -40.9462  -11.1972 H   0  0  0  0  0  0  0  0  0  0  0  0
   13.2982  -40.7472  -12.5160 H   0  0  0  0  0  0  0  0  0  0  0  0
  1  2  2  0  0  0  0
  1  6  1  0  0  0  0
  1 25  1  0  0  0  0
  2  3  1  0  0  0  0
  2  7  1  0  0  0  0
  3  4  2  0  0  0  0
  3  9  1  0  0  0  0
  4  5  1  0  0  0  0
  4 26  1  0  0  0  0
  5  6  2  0  0  0  0
  5  8  1  0  0  0  0
  6 27  1  0  0  0  0
  7 28  1  0  0  0  0
  7 29  1  0  0  0  0
  7 30  1  0  0  0  0
  9 10  1  0  0  0  0
  9 31  1  0  0  0  0
  9 32  1  0  0  0  0
 10 11  1  0  0  0  0
 10 12  2  0  0  0  0
 11 13  1  0  0  0  0
 11 33  1  0  0  0  0
 13 14  2  0  0  0  0
 13 18  1  0  0  0  0
 14 15  1  0  0  0  0
 14 34  1  0  0  0  0
 15 16  2  0  0  0  0
 15 19  1  0  0  0  0
 16 17  1  0  0  0  0
 16 35  1  0  0  0  0
 17 18  2  0  0  0  0
 17 36  1  0  0  0  0
 18 37  1  0  0  0  0
 19 20  1  0  0  0  0
 19 23  1  0  0  0  0
 20 21  2  0  0  0  0
 20 24  1  0  0  0  0
 21 22  1  0  0  0  0
 22 23  2  0  0  0  0
 23 38  1  0  0  0  0
 24 39  1  0  0  0  0
 24 40  1  0  0  0  0
 24 41  1  0  0  0  0
M  END
> <BIOSOLVEIT.HYDE_ESTIMATED_AFFINITY_LOWER_BOUNDARY [nM]>
367552.810468

> <BIOSOLVEIT.HYDE_ESTIMATED_AFFINITY_UPPER_BOUNDARY [nM]>
36518544.864219

> <BIOSOLVEIT.HYDE_LIGAND_EFFICIENCY range: ++, +, 0, -, -->
--

> <BIOSOLVEIT.HYDE_LIGAND_LIPOPHILIC_EFFICIENCY range: ++, +, 0, -, -->
--

> <BIOSOLVEIT.INTER_CLASH range: red, yellow, green>
green

> <BIOSOLVEIT.INTRA_CLASH range: red, yellow, green>
green

> <BIOSOLVEIT.LOGP>
3.82784

> <BIOSOLVEIT.MOLECULAR WEIGHT>
385.263

> <BIOSOLVEIT.MOLECULE_CHECKSUM>
LTEzLjkwNTI7MC41NzkzODM=

> <BIOSOLVEIT.TORSION_QUALITY range: red, yellow, green, not rotatable>
yellow

> <BIOSOLVEIT.TPSA>
59.81

$$$$
PV-001802957486.****
b8Hydescor01032215413D 1   1.00000     0.00000     0
Hydescorer 1.1.2 b8048283
 41 43  0  0  0  0            999 V2000
   14.8365  -33.0456  -12.8907 C   0  0  0  0  0  0  0  0  0  0  0  0
   14.3928  -34.2480  -12.3388 C   0  0  0  0  0  0  0  0  0  0  0  0
   14.6028  -34.4981  -10.9735 C   0  0  0  0  0  0  0  0  0  0  0  0
   15.2481  -33.5393  -10.1915 C   0  0  0  0  0  0  0  0  0  0  0  0
   15.6859  -32.3428  -10.7516 C   0  0  0  0  0  0  0  0  0  0  0  0
   15.4781  -32.0979  -12.1024 C   0  0  0  0  0  0  0  0  0  0  0  0
   13.7039  -35.2508  -13.2491 C   0  0  0  0  0  0  0  0  0  0  0  0
   16.5569  -31.0540   -9.6743 Br  0  0  0  0  0  0  0  0  0  0  0  0
   14.1172  -35.7744  -10.2882 C   0  0  0  0  0  0  0  0  0  0  0  0
   15.0606  -36.9023  -10.6657 C   0  0  0  0  0  0  0  0  0  0  0  0
   14.5201  -38.0204  -11.2544 N   0  0  0  0  0  0  0  0  0  0  0  0
   16.2544  -36.8336  -10.4562 O   0  0  0  0  0  0  0  0  0  0  0  0
   15.2060  -39.1779  -11.6829 C   0  0  0  0  0  0  0  0  0  0  0  0
   16.3450  -39.0962  -12.4827 C   0  0  0  0  0  0  0  0  0  0  0  0
   16.9799  -40.2801  -12.8475 C   0  0  0  0  0  0  0  0  0  0  0  0
   16.4909  -41.5301  -12.4602 C   0  0  0  0  0  0  0  0  0  0  0  0
   15.3368  -41.5902  -11.6802 C   0  0  0  0  0  0  0  0  0  0  0  0
   14.6928  -40.4171  -11.2899 C   0  0  0  0  0  0  0  0  0  0  0  0
   18.1738  -40.2119  -13.6374 N   0  0  0  0  0  0  0  0  0  0  0  0
   19.4299  -40.4900  -13.2569 C   0  0  0  0  0  0  0  0  0  0  0  0
   20.2251  -40.3156  -14.2608 N   0  0  0  0  0  0  0  0  0  0  0  0
   19.4606  -39.9109  -15.3327 N   0  0  0  0  0  0  0  0  0  0  0  0
   18.2387  -39.8601  -14.9225 C   0  0  0  0  0  0  0  0  0  0  0  0
   19.8014  -40.9324  -11.8576 C   0  0  0  0  0  0  0  0  0  0  0  0
   14.6912  -32.8640  -13.8633 H   0  0  0  0  0  0  0  0  0  0  0  0
   15.3975  -33.7137   -9.2183 H   0  0  0  0  0  0  0  0  0  0  0  0
   15.7904  -31.2390  -12.5083 H   0  0  0  0  0  0  0  0  0  0  0  0
   13.4432  -36.0578  -12.7193 H   0  0  0  0  0  0  0  0  0  0  0  0
   12.8860  -34.8340  -13.6458 H   0  0  0  0  0  0  0  0  0  0  0  0
   14.3292  -35.5205  -13.9815 H   0  0  0  0  0  0  0  0  0  0  0  0
   13.1902  -35.9915  -10.5940 H   0  0  0  0  0  0  0  0  0  0  0  0
   14.1200  -35.6483   -9.2961 H   0  0  0  0  0  0  0  0  0  0  0  0
   13.5300  -38.0135  -11.3949 H   0  0  0  0  0  0  0  0  0  0  0  0
   16.6966  -38.2107  -12.7862 H   0  0  0  0  0  0  0  0  0  0  0  0
   16.9609  -42.3679  -12.7377 H   0  0  0  0  0  0  0  0  0  0  0  0
   14.9700  -42.4773  -11.3999 H   0  0  0  0  0  0  0  0  0  0  0  0
   13.8655  -40.4620  -10.7300 H   0  0  0  0  0  0  0  0  0  0  0  0
   17.4553  -39.5958  -15.4851 H   0  0  0  0  0  0  0  0  0  0  0  0
   20.7889  -41.0817  -11.8063 H   0  0  0  0  0  0  0  0  0  0  0  0
   19.5370  -40.2243  -11.2029 H   0  0  0  0  0  0  0  0  0  0  0  0
   19.3238  -41.7834  -11.6391 H   0  0  0  0  0  0  0  0  0  0  0  0
  1  2  2  0  0  0  0
  1  6  1  0  0  0  0
  1 25  1  0  0  0  0
  2  3  1  0  0  0  0
  2  7  1  0  0  0  0
  3  4  2  0  0  0  0
  3  9  1  0  0  0  0
  4  5  1  0  0  0  0
  4 26  1  0  0  0  0
  5  6  2  0  0  0  0
  5  8  1  0  0  0  0
  6 27  1  0  0  0  0
  7 28  1  0  0  0  0
  7 29  1  0  0  0  0
  7 30  1  0  0  0  0
  9 10  1  0  0  0  0
  9 31  1  0  0  0  0
  9 32  1  0  0  0  0
 10 11  1  0  0  0  0
 10 12  2  0  0  0  0
 11 13  1  0  0  0  0
 11 33  1  0  0  0  0
 13 14  2  0  0  0  0
 13 18  1  0  0  0  0
 14 15  1  0  0  0  0
 14 34  1  0  0  0  0
 15 16  2  0  0  0  0
 15 19  1  0  0  0  0
 16 17  1  0  0  0  0
 16 35  1  0  0  0  0
 17 18  2  0  0  0  0
 17 36  1  0  0  0  0
 18 37  1  0  0  0  0
 19 20  1  0  0  0  0
 19 23  1  0  0  0  0
 20 21  2  0  0  0  0
 20 24  1  0  0  0  0
 21 22  1  0  0  0  0
 22 23  2  0  0  0  0
 23 38  1  0  0  0  0
 24 39  1  0  0  0  0
 24 40  1  0  0  0  0
 24 41  1  0  0  0  0
M  END
> <BIOSOLVEIT.HYDE_ESTIMATED_AFFINITY_LOWER_BOUNDARY [nM]>
1934190.820602

> <BIOSOLVEIT.HYDE_ESTIMATED_AFFINITY_UPPER_BOUNDARY [nM]>
192173293.868014

> <BIOSOLVEIT.HYDE_LIGAND_EFFICIENCY range: ++, +, 0, -, -->
--

> <BIOSOLVEIT.HYDE_LIGAND_LIPOPHILIC_EFFICIENCY range: ++, +, 0, -, -->
--

> <BIOSOLVEIT.INTER_CLASH range: red, yellow, green>
green

> <BIOSOLVEIT.INTRA_CLASH range: red, yellow, green>
green

> <BIOSOLVEIT.LOGP>
3.82784

> <BIOSOLVEIT.MOLECULAR WEIGHT>
385.263

> <BIOSOLVEIT.MOLECULE_CHECKSUM>
LTkuNzg4Njk7MC40MDc4NjI=

> <BIOSOLVEIT.TORSION_QUALITY range: red, yellow, green, not rotatable>
green

> <BIOSOLVEIT.TPSA>
59.81

$$$$
PV-001802957486.****
b8Hydescor01032215413D 1   1.00000     0.00000     0
Hydescorer 1.1.2 b8048283
 41 43  0  0  0  0            999 V2000
   11.3617  -38.1032  -14.4840 C   0  0  0  0  0  0  0  0  0  0  0  0
   11.6825  -38.7136  -13.2709 C   0  0  0  0  0  0  0  0  0  0  0  0
   12.9295  -39.3416  -13.1245 C   0  0  0  0  0  0  0  0  0  0  0  0
   13.8273  -39.3419  -14.1929 C   0  0  0  0  0  0  0  0  0  0  0  0
   13.4977  -38.7295  -15.3983 C   0  0  0  0  0  0  0  0  0  0  0  0
   12.2635  -38.1098  -15.5412 C   0  0  0  0  0  0  0  0  0  0  0  0
   10.6554  -38.6821  -12.1515 C   0  0  0  0  0  0  0  0  0  0  0  0
   14.7294  -38.7385  -16.8346 Br  0  0  0  0  0  0  0  0  0  0  0  0
   13.3683  -40.0019  -11.8184 C   0  0  0  0  0  0  0  0  0  0  0  0
   14.7560  -39.4922  -11.4735 C   0  0  0  0  0  0  0  0  0  0  0  0
   14.8851  -38.1689  -11.1259 N   0  0  0  0  0  0  0  0  0  0  0  0
   15.7289  -40.2178  -11.5042 O   0  0  0  0  0  0  0  0  0  0  0  0
   16.0709  -37.4893  -10.7709 C   0  0  0  0  0  0  0  0  0  0  0  0
   17.2394  -37.6218  -11.5199 C   0  0  0  0  0  0  0  0  0  0  0  0
   18.3628  -36.9036  -11.1204 C   0  0  0  0  0  0  0  0  0  0  0  0
   18.3535  -36.0888   -9.9857 C   0  0  0  0  0  0  0  0  0  0  0  0
   17.1814  -35.9889   -9.2372 C   0  0  0  0  0  0  0  0  0  0  0  0
   16.0393  -36.6869   -9.6269 C   0  0  0  0  0  0  0  0  0  0  0  0
   19.5607  -36.9988  -11.9015 N   0  0  0  0  0  0  0  0  0  0  0  0
   19.7286  -36.6795  -13.1937 C   0  0  0  0  0  0  0  0  0  0  0  0
   20.9577  -36.8993  -13.5279 N   0  0  0  0  0  0  0  0  0  0  0  0
   21.6134  -37.3771  -12.4149 N   0  0  0  0  0  0  0  0  0  0  0  0
   20.7462  -37.4232  -11.4611 C   0  0  0  0  0  0  0  0  0  0  0  0
   18.6177  -36.1513  -14.0760 C   0  0  0  0  0  0  0  0  0  0  0  0
   10.4737  -37.6565  -14.5937 H   0  0  0  0  0  0  0  0  0  0  0  0
   14.7170  -39.7870  -14.0911 H   0  0  0  0  0  0  0  0  0  0  0  0
   12.0233  -37.6678  -16.4055 H   0  0  0  0  0  0  0  0  0  0  0  0
   11.0214  -39.1547  -11.3498 H   0  0  0  0  0  0  0  0  0  0  0  0
   10.4503  -37.7326  -11.9139 H   0  0  0  0  0  0  0  0  0  0  0  0
    9.8185  -39.1383  -12.4541 H   0  0  0  0  0  0  0  0  0  0  0  0
   13.3908  -40.9952  -11.9319 H   0  0  0  0  0  0  0  0  0  0  0  0
   12.7288  -39.7644  -11.0872 H   0  0  0  0  0  0  0  0  0  0  0  0
   14.0451  -37.6263  -11.1242 H   0  0  0  0  0  0  0  0  0  0  0  0
   17.2695  -38.2170  -12.3228 H   0  0  0  0  0  0  0  0  0  0  0  0
   19.1740  -35.5854   -9.7149 H   0  0  0  0  0  0  0  0  0  0  0  0
   17.1599  -35.4150   -8.4185 H   0  0  0  0  0  0  0  0  0  0  0  0
   15.1993  -36.6137   -9.0893 H   0  0  0  0  0  0  0  0  0  0  0  0
   20.9348  -37.7318  -10.5288 H   0  0  0  0  0  0  0  0  0  0  0  0
   18.9733  -35.9839  -14.9955 H   0  0  0  0  0  0  0  0  0  0  0  0
   17.8796  -36.8244  -14.1215 H   0  0  0  0  0  0  0  0  0  0  0  0
   18.2663  -35.2966  -13.6938 H   0  0  0  0  0  0  0  0  0  0  0  0
  1  2  2  0  0  0  0
  1  6  1  0  0  0  0
  1 25  1  0  0  0  0
  2  3  1  0  0  0  0
  2  7  1  0  0  0  0
  3  4  2  0  0  0  0
  3  9  1  0  0  0  0
  4  5  1  0  0  0  0
  4 26  1  0  0  0  0
  5  6  2  0  0  0  0
  5  8  1  0  0  0  0
  6 27  1  0  0  0  0
  7 28  1  0  0  0  0
  7 29  1  0  0  0  0
  7 30  1  0  0  0  0
  9 10  1  0  0  0  0
  9 31  1  0  0  0  0
  9 32  1  0  0  0  0
 10 11  1  0  0  0  0
 10 12  2  0  0  0  0
 11 13  1  0  0  0  0
 11 33  1  0  0  0  0
 13 14  2  0  0  0  0
 13 18  1  0  0  0  0
 14 15  1  0  0  0  0
 14 34  1  0  0  0  0
 15 16  2  0  0  0  0
 15 19  1  0  0  0  0
 16 17  1  0  0  0  0
 16 35  1  0  0  0  0
 17 18  2  0  0  0  0
 17 36  1  0  0  0  0
 18 37  1  0  0  0  0
 19 20  1  0  0  0  0
 19 23  1  0  0  0  0
 20 21  2  0  0  0  0
 20 24  1  0  0  0  0
 21 22  1  0  0  0  0
 22 23  2  0  0  0  0
 23 38  1  0  0  0  0
 24 39  1  0  0  0  0
 24 40  1  0  0  0  0
 24 41  1  0  0  0  0
M  END
> <BIOSOLVEIT.HYDE_ESTIMATED_AFFINITY_LOWER_BOUNDARY [nM]>
747834.974406

> <BIOSOLVEIT.HYDE_ESTIMATED_AFFINITY_UPPER_BOUNDARY [nM]>
74301826.257566

> <BIOSOLVEIT.HYDE_LIGAND_EFFICIENCY range: ++, +, 0, -, -->
--

> <BIOSOLVEIT.HYDE_LIGAND_LIPOPHILIC_EFFICIENCY range: ++, +, 0, -, -->
--

> <BIOSOLVEIT.INTER_CLASH range: red, yellow, green>
green

> <BIOSOLVEIT.INTRA_CLASH range: red, yellow, green>
green

> <BIOSOLVEIT.LOGP>
3.82784

> <BIOSOLVEIT.MOLECULAR WEIGHT>
385.263

> <BIOSOLVEIT.MOLECULE_CHECKSUM>
LTEyLjE0NDM7MC41MDYwMTQ=

> <BIOSOLVEIT.TORSION_QUALITY range: red, yellow, green, not rotatable>
yellow

> <BIOSOLVEIT.TPSA>
59.81

$$$$
PV-001794469959.****
b8Hydescor01032215413D 1   1.00000     0.00000     0
Hydescorer 1.1.2 b8048283
 40 42  0  0  0  0            999 V2000
   14.6727  -32.8376  -12.7908 C   0  0  0  0  0  0  0  0  0  0  0  0
   14.6331  -34.1774  -12.4007 C   0  0  0  0  0  0  0  0  0  0  0  0
   15.2074  -34.5579  -11.1772 C   0  0  0  0  0  0  0  0  0  0  0  0
   15.8245  -33.5876  -10.3840 C   0  0  0  0  0  0  0  0  0  0  0  0
   15.8567  -32.2551  -10.7801 C   0  0  0  0  0  0  0  0  0  0  0  0
   15.2789  -31.8811  -11.9858 C   0  0  0  0  0  0  0  0  0  0  0  0
   13.9495  -35.1714  -13.3239 C   0  0  0  0  0  0  0  0  0  0  0  0
   16.6783  -30.9604   -9.6709 Br  0  0  0  0  0  0  0  0  0  0  0  0
   15.1876  -35.9986  -10.6665 C   0  0  0  0  0  0  0  0  0  0  0  0
   16.5661  -36.6115  -10.8646 C   0  0  0  0  0  0  0  0  0  0  0  0
   17.0679  -36.9109  -12.0951 N   0  0  0  0  0  0  0  0  0  0  0  0
   17.2985  -36.8681   -9.9350 O   0  0  0  0  0  0  0  0  0  0  0  0
   18.3250  -37.4753  -12.3628 C   0  0  0  0  0  0  0  0  0  0  0  0
   18.6964  -38.6695  -11.7491 C   0  0  0  0  0  0  0  0  0  0  0  0
   19.9528  -39.1950  -12.0471 C   0  0  0  0  0  0  0  0  0  0  0  0
   20.8349  -38.5485  -12.9203 C   0  0  0  0  0  0  0  0  0  0  0  0
   20.4397  -37.3525  -13.5170 C   0  0  0  0  0  0  0  0  0  0  0  0
   19.1850  -36.8117  -13.2403 C   0  0  0  0  0  0  0  0  0  0  0  0
   20.3498  -40.4328  -11.4304 N   0  0  0  0  0  0  0  0  0  0  0  0
   19.8408  -41.6471  -11.6467 C   0  0  0  0  0  0  0  0  0  0  0  0
   20.4558  -42.4852  -10.8978 N   0  0  0  0  0  0  0  0  0  0  0  0
   21.3694  -41.7642  -10.1917 N   0  0  0  0  0  0  0  0  0  0  0  0
   21.3015  -40.5069  -10.5155 N   0  0  0  0  0  0  0  0  0  0  0  0
   18.7178  -41.9413  -12.6191 C   0  0  0  0  0  0  0  0  0  0  0  0
   14.2600  -32.5632  -13.6594 H   0  0  0  0  0  0  0  0  0  0  0  0
   16.2490  -33.8551   -9.5190 H   0  0  0  0  0  0  0  0  0  0  0  0
   15.2991  -30.9240  -12.2746 H   0  0  0  0  0  0  0  0  0  0  0  0
   13.9957  -36.0859  -12.9220 H   0  0  0  0  0  0  0  0  0  0  0  0
   12.9923  -34.9090  -13.4462 H   0  0  0  0  0  0  0  0  0  0  0  0
   14.4104  -35.1736  -14.2113 H   0  0  0  0  0  0  0  0  0  0  0  0
   14.5091  -36.5265  -11.1773 H   0  0  0  0  0  0  0  0  0  0  0  0
   14.9534  -36.0068   -9.6944 H   0  0  0  0  0  0  0  0  0  0  0  0
   16.4854  -36.7094  -12.8826 H   0  0  0  0  0  0  0  0  0  0  0  0
   18.0804  -39.1357  -11.1141 H   0  0  0  0  0  0  0  0  0  0  0  0
   21.7352  -38.9387  -13.1130 H   0  0  0  0  0  0  0  0  0  0  0  0
   21.0581  -36.8809  -14.1457 H   0  0  0  0  0  0  0  0  0  0  0  0
   18.9023  -35.9530  -13.6679 H   0  0  0  0  0  0  0  0  0  0  0  0
   18.5124  -42.9199  -12.6049 H   0  0  0  0  0  0  0  0  0  0  0  0
   17.9032  -41.4258  -12.3534 H   0  0  0  0  0  0  0  0  0  0  0  0
   18.9963  -41.6725  -13.5412 H   0  0  0  0  0  0  0  0  0  0  0  0
  1  2  2  0  0  0  0
  1  6  1  0  0  0  0
  1 25  1  0  0  0  0
  2  3  1  0  0  0  0
  2  7  1  0  0  0  0
  3  4  2  0  0  0  0
  3  9  1  0  0  0  0
  4  5  1  0  0  0  0
  4 26  1  0  0  0  0
  5  6  2  0  0  0  0
  5  8  1  0  0  0  0
  6 27  1  0  0  0  0
  7 28  1  0  0  0  0
  7 29  1  0  0  0  0
  7 30  1  0  0  0  0
  9 10  1  0  0  0  0
  9 31  1  0  0  0  0
  9 32  1  0  0  0  0
 10 11  1  0  0  0  0
 10 12  2  0  0  0  0
 11 13  1  0  0  0  0
 11 33  1  0  0  0  0
 13 14  2  0  0  0  0
 13 18  1  0  0  0  0
 14 15  1  0  0  0  0
 14 34  1  0  0  0  0
 15 16  2  0  0  0  0
 15 19  1  0  0  0  0
 16 17  1  0  0  0  0
 16 35  1  0  0  0  0
 17 18  2  0  0  0  0
 17 36  1  0  0  0  0
 18 37  1  0  0  0  0
 19 20  1  0  0  0  0
 19 23  1  0  0  0  0
 20 21  2  0  0  0  0
 20 24  1  0  0  0  0
 21 22  1  0  0  0  0
 22 23  2  0  0  0  0
 24 38  1  0  0  0  0
 24 39  1  0  0  0  0
 24 40  1  0  0  0  0
M  END
> <BIOSOLVEIT.HYDE_ESTIMATED_AFFINITY_LOWER_BOUNDARY [nM]>
8121440.200205

> <BIOSOLVEIT.HYDE_ESTIMATED_AFFINITY_UPPER_BOUNDARY [nM]>
806913101.645056

> <BIOSOLVEIT.HYDE_LIGAND_EFFICIENCY range: ++, +, 0, -, -->
--

> <BIOSOLVEIT.HYDE_LIGAND_LIPOPHILIC_EFFICIENCY range: ++, +, 0, -, -->
--

> <BIOSOLVEIT.INTER_CLASH range: red, yellow, green>
green

> <BIOSOLVEIT.INTRA_CLASH range: red, yellow, green>
green

> <BIOSOLVEIT.LOGP>
3.22284

> <BIOSOLVEIT.MOLECULAR WEIGHT>
386.251

> <BIOSOLVEIT.MOLECULE_CHECKSUM>
LTYuMjMxODM7MC4yNTk2Ng==

> <BIOSOLVEIT.TORSION_QUALITY range: red, yellow, green, not rotatable>
green

> <BIOSOLVEIT.TPSA>
72.7

$$$$
PV-001794469959.****
b8Hydescor01032215413D 1   1.00000     0.00000     0
Hydescorer 1.1.2 b8048283
 40 42  0  0  0  0            999 V2000
   14.5108  -33.2580  -12.8260 C   0  0  0  0  0  0  0  0  0  0  0  0
   14.2545  -34.5876  -12.4867 C   0  0  0  0  0  0  0  0  0  0  0  0
   14.6767  -35.0761  -11.2399 C   0  0  0  0  0  0  0  0  0  0  0  0
   15.3630  -34.2235  -10.3718 C   0  0  0  0  0  0  0  0  0  0  0  0
   15.6116  -32.9000  -10.7178 C   0  0  0  0  0  0  0  0  0  0  0  0
   15.1837  -32.4179  -11.9474 C   0  0  0  0  0  0  0  0  0  0  0  0
   13.5087  -35.4509  -13.4899 C   0  0  0  0  0  0  0  0  0  0  0  0
   16.5219  -31.7634   -9.5090 Br  0  0  0  0  0  0  0  0  0  0  0  0
   14.4168  -36.5115  -10.7825 C   0  0  0  0  0  0  0  0  0  0  0  0
   15.2646  -37.4575  -11.6198 C   0  0  0  0  0  0  0  0  0  0  0  0
   15.1982  -38.8121  -11.4931 N   0  0  0  0  0  0  0  0  0  0  0  0
   16.0496  -37.0574  -12.4507 O   0  0  0  0  0  0  0  0  0  0  0  0
   15.9432  -39.7507  -12.2242 C   0  0  0  0  0  0  0  0  0  0  0  0
   15.3096  -40.8573  -12.7852 C   0  0  0  0  0  0  0  0  0  0  0  0
   16.0883  -41.7616  -13.5057 C   0  0  0  0  0  0  0  0  0  0  0  0
   17.4689  -41.5893  -13.6573 C   0  0  0  0  0  0  0  0  0  0  0  0
   18.0782  -40.4756  -13.0820 C   0  0  0  0  0  0  0  0  0  0  0  0
   17.3186  -39.5535  -12.3634 C   0  0  0  0  0  0  0  0  0  0  0  0
   15.4497  -42.9053  -14.1006 N   0  0  0  0  0  0  0  0  0  0  0  0
   15.5954  -43.3593  -15.3468 C   0  0  0  0  0  0  0  0  0  0  0  0
   14.8505  -44.3914  -15.4934 N   0  0  0  0  0  0  0  0  0  0  0  0
   14.2196  -44.5766  -14.3015 N   0  0  0  0  0  0  0  0  0  0  0  0
   14.5841  -43.6641  -13.4500 N   0  0  0  0  0  0  0  0  0  0  0  0
   16.4963  -42.7260  -16.3863 C   0  0  0  0  0  0  0  0  0  0  0  0
   14.2068  -32.9063  -13.7113 H   0  0  0  0  0  0  0  0  0  0  0  0
   15.6800  -34.5701   -9.4890 H   0  0  0  0  0  0  0  0  0  0  0  0
   15.3596  -31.4666  -12.2007 H   0  0  0  0  0  0  0  0  0  0  0  0
   13.3958  -36.3723  -13.1179 H   0  0  0  0  0  0  0  0  0  0  0  0
   12.6097  -35.0517  -13.6700 H   0  0  0  0  0  0  0  0  0  0  0  0
   14.0296  -35.4970  -14.3422 H   0  0  0  0  0  0  0  0  0  0  0  0
   13.4490  -36.7322  -10.9034 H   0  0  0  0  0  0  0  0  0  0  0  0
   14.6622  -36.6059   -9.8176 H   0  0  0  0  0  0  0  0  0  0  0  0
   14.5579  -39.1721  -10.8146 H   0  0  0  0  0  0  0  0  0  0  0  0
   14.3259  -40.9987  -12.6744 H   0  0  0  0  0  0  0  0  0  0  0  0
   18.0100  -42.2553  -14.1707 H   0  0  0  0  0  0  0  0  0  0  0  0
   19.0632  -40.3376  -13.1849 H   0  0  0  0  0  0  0  0  0  0  0  0
   17.7564  -38.7552  -11.9499 H   0  0  0  0  0  0  0  0  0  0  0  0
   16.4365  -43.2442  -17.2395 H   0  0  0  0  0  0  0  0  0  0  0  0
   16.2066  -41.7826  -16.5482 H   0  0  0  0  0  0  0  0  0  0  0  0
   17.4407  -42.7329  -16.0576 H   0  0  0  0  0  0  0  0  0  0  0  0
  1  2  2  0  0  0  0
  1  6  1  0  0  0  0
  1 25  1  0  0  0  0
  2  3  1  0  0  0  0
  2  7  1  0  0  0  0
  3  4  2  0  0  0  0
  3  9  1  0  0  0  0
  4  5  1  0  0  0  0
  4 26  1  0  0  0  0
  5  6  2  0  0  0  0
  5  8  1  0  0  0  0
  6 27  1  0  0  0  0
  7 28  1  0  0  0  0
  7 29  1  0  0  0  0
  7 30  1  0  0  0  0
  9 10  1  0  0  0  0
  9 31  1  0  0  0  0
  9 32  1  0  0  0  0
 10 11  1  0  0  0  0
 10 12  2  0  0  0  0
 11 13  1  0  0  0  0
 11 33  1  0  0  0  0
 13 14  2  0  0  0  0
 13 18  1  0  0  0  0
 14 15  1  0  0  0  0
 14 34  1  0  0  0  0
 15 16  2  0  0  0  0
 15 19  1  0  0  0  0
 16 17  1  0  0  0  0
 16 35  1  0  0  0  0
 17 18  2  0  0  0  0
 17 36  1  0  0  0  0
 18 37  1  0  0  0  0
 19 20  1  0  0  0  0
 19 23  1  0  0  0  0
 20 21  2  0  0  0  0
 20 24  1  0  0  0  0
 21 22  1  0  0  0  0
 22 23  2  0  0  0  0
 24 38  1  0  0  0  0
 24 39  1  0  0  0  0
 24 40  1  0  0  0  0
M  END
> <BIOSOLVEIT.HYDE_ESTIMATED_AFFINITY_LOWER_BOUNDARY [nM]>
1182839392.881293

> <BIOSOLVEIT.HYDE_ESTIMATED_AFFINITY_UPPER_BOUNDARY [nM]>
117522087182.721008

> <BIOSOLVEIT.HYDE_LIGAND_EFFICIENCY range: ++, +, 0, -, -->
--

> <BIOSOLVEIT.HYDE_LIGAND_LIPOPHILIC_EFFICIENCY range: ++, +, 0, -, -->
--

> <BIOSOLVEIT.INTER_CLASH range: red, yellow, green>
green

> <BIOSOLVEIT.INTRA_CLASH range: red, yellow, green>
yellow

> <BIOSOLVEIT.LOGP>
3.22284

> <BIOSOLVEIT.MOLECULAR WEIGHT>
386.251

> <BIOSOLVEIT.MOLECULE_CHECKSUM>
Ni4xMTYyNjsw

> <BIOSOLVEIT.TORSION_QUALITY range: red, yellow, green, not rotatable>
green

> <BIOSOLVEIT.TPSA>
72.7

$$$$
PV-001794469959.****
b8Hydescor01032215413D 1   1.00000     0.00000     0
Hydescorer 1.1.2 b8048283
 40 42  0  0  0  0            999 V2000
   21.3672  -41.9001  -15.1334 C   0  0  0  0  0  0  0  0  0  0  0  0
   20.9790  -41.7133  -13.8055 C   0  0  0  0  0  0  0  0  0  0  0  0
   21.6416  -40.7564  -13.0203 C   0  0  0  0  0  0  0  0  0  0  0  0
   22.6905  -40.0237  -13.5810 C   0  0  0  0  0  0  0  0  0  0  0  0
   23.0684  -40.2153  -14.9053 C   0  0  0  0  0  0  0  0  0  0  0  0
   22.4042  -41.1555  -15.6816 C   0  0  0  0  0  0  0  0  0  0  0  0
   19.8338  -42.5555  -13.2698 C   0  0  0  0  0  0  0  0  0  0  0  0
   24.4770  -39.1890  -15.6430 Br  0  0  0  0  0  0  0  0  0  0  0  0
   21.2642  -40.4747  -11.5658 C   0  0  0  0  0  0  0  0  0  0  0  0
   20.1622  -39.4261  -11.5361 C   0  0  0  0  0  0  0  0  0  0  0  0
   20.4180  -38.0888  -11.5766 N   0  0  0  0  0  0  0  0  0  0  0  0
   18.9897  -39.7230  -11.4752 O   0  0  0  0  0  0  0  0  0  0  0  0
   19.4625  -37.0609  -11.5532 C   0  0  0  0  0  0  0  0  0  0  0  0
   18.8752  -36.6298  -12.7406 C   0  0  0  0  0  0  0  0  0  0  0  0
   17.9289  -35.6085  -12.6694 C   0  0  0  0  0  0  0  0  0  0  0  0
   17.5791  -35.0102  -11.4535 C   0  0  0  0  0  0  0  0  0  0  0  0
   18.1855  -35.4577  -10.2810 C   0  0  0  0  0  0  0  0  0  0  0  0
   19.1289  -36.4830  -10.3264 C   0  0  0  0  0  0  0  0  0  0  0  0
   17.3045  -35.1570  -13.8842 N   0  0  0  0  0  0  0  0  0  0  0  0
   16.0720  -34.6666  -14.0296 C   0  0  0  0  0  0  0  0  0  0  0  0
   15.8880  -34.3889  -15.2668 N   0  0  0  0  0  0  0  0  0  0  0  0
   17.0415  -34.7248  -15.9069 N   0  0  0  0  0  0  0  0  0  0  0  0
   17.9073  -35.1984  -15.0604 N   0  0  0  0  0  0  0  0  0  0  0  0
   15.0839  -34.4909  -12.8955 C   0  0  0  0  0  0  0  0  0  0  0  0
   20.8936  -42.5774  -15.6963 H   0  0  0  0  0  0  0  0  0  0  0  0
   23.1764  -39.3519  -13.0220 H   0  0  0  0  0  0  0  0  0  0  0  0
   22.6720  -41.2966  -16.6347 H   0  0  0  0  0  0  0  0  0  0  0  0
   19.6647  -42.3183  -12.3131 H   0  0  0  0  0  0  0  0  0  0  0  0
   19.0096  -42.3783  -13.8078 H   0  0  0  0  0  0  0  0  0  0  0  0
   20.0731  -43.5242  -13.3357 H   0  0  0  0  0  0  0  0  0  0  0  0
   22.0642  -40.1347  -11.0714 H   0  0  0  0  0  0  0  0  0  0  0  0
   20.9386  -41.3161  -11.1346 H   0  0  0  0  0  0  0  0  0  0  0  0
   21.3779  -37.8131  -11.6278 H   0  0  0  0  0  0  0  0  0  0  0  0
   19.1248  -37.0404  -13.6175 H   0  0  0  0  0  0  0  0  0  0  0  0
   16.9042  -34.2727  -11.4264 H   0  0  0  0  0  0  0  0  0  0  0  0
   17.9430  -35.0419   -9.4044 H   0  0  0  0  0  0  0  0  0  0  0  0
   19.5645  -36.8029   -9.4851 H   0  0  0  0  0  0  0  0  0  0  0  0
   14.2320  -34.1074  -13.2520 H   0  0  0  0  0  0  0  0  0  0  0  0
   14.8990  -35.3787  -12.4739 H   0  0  0  0  0  0  0  0  0  0  0  0
   15.4682  -33.8707  -12.2117 H   0  0  0  0  0  0  0  0  0  0  0  0
  1  2  2  0  0  0  0
  1  6  1  0  0  0  0
  1 25  1  0  0  0  0
  2  3  1  0  0  0  0
  2  7  1  0  0  0  0
  3  4  2  0  0  0  0
  3  9  1  0  0  0  0
  4  5  1  0  0  0  0
  4 26  1  0  0  0  0
  5  6  2  0  0  0  0
  5  8  1  0  0  0  0
  6 27  1  0  0  0  0
  7 28  1  0  0  0  0
  7 29  1  0  0  0  0
  7 30  1  0  0  0  0
  9 10  1  0  0  0  0
  9 31  1  0  0  0  0
  9 32  1  0  0  0  0
 10 11  1  0  0  0  0
 10 12  2  0  0  0  0
 11 13  1  0  0  0  0
 11 33  1  0  0  0  0
 13 14  2  0  0  0  0
 13 18  1  0  0  0  0
 14 15  1  0  0  0  0
 14 34  1  0  0  0  0
 15 16  2  0  0  0  0
 15 19  1  0  0  0  0
 16 17  1  0  0  0  0
 16 35  1  0  0  0  0
 17 18  2  0  0  0  0
 17 36  1  0  0  0  0
 18 37  1  0  0  0  0
 19 20  1  0  0  0  0
 19 23  1  0  0  0  0
 20 21  2  0  0  0  0
 20 24  1  0  0  0  0
 21 22  1  0  0  0  0
 22 23  2  0  0  0  0
 24 38  1  0  0  0  0
 24 39  1  0  0  0  0
 24 40  1  0  0  0  0
M  END
> <BIOSOLVEIT.HYDE_ESTIMATED_AFFINITY_LOWER_BOUNDARY [nM]>
20678152.026074

> <BIOSOLVEIT.HYDE_ESTIMATED_AFFINITY_UPPER_BOUNDARY [nM]>
2054496662.700986

> <BIOSOLVEIT.HYDE_LIGAND_EFFICIENCY range: ++, +, 0, -, -->
--

> <BIOSOLVEIT.HYDE_LIGAND_LIPOPHILIC_EFFICIENCY range: ++, +, 0, -, -->
--

> <BIOSOLVEIT.INTER_CLASH range: red, yellow, green>
green

> <BIOSOLVEIT.INTRA_CLASH range: red, yellow, green>
yellow

> <BIOSOLVEIT.LOGP>
3.22284

> <BIOSOLVEIT.MOLECULAR WEIGHT>
386.251

> <BIOSOLVEIT.MOLECULE_CHECKSUM>
LTMuOTE1MDc7MC4xNjMxMjg=

> <BIOSOLVEIT.TORSION_QUALITY range: red, yellow, green, not rotatable>
yellow

> <BIOSOLVEIT.TPSA>
72.7

$$$$
PV-001794469959.****
b8Hydescor01032215413D 1   1.00000     0.00000     0
Hydescorer 1.1.2 b8048283
 40 42  0  0  0  0            999 V2000
   17.4478  -34.5731  -12.0481 C   0  0  0  0  0  0  0  0  0  0  0  0
   16.6696  -35.2934  -11.1402 C   0  0  0  0  0  0  0  0  0  0  0  0
   15.8594  -36.3419  -11.6045 C   0  0  0  0  0  0  0  0  0  0  0  0
   15.8350  -36.6294  -12.9713 C   0  0  0  0  0  0  0  0  0  0  0  0
   16.6155  -35.9076  -13.8676 C   0  0  0  0  0  0  0  0  0  0  0  0
   17.4231  -34.8781  -13.4033 C   0  0  0  0  0  0  0  0  0  0  0  0
   16.7476  -34.9130   -9.6715 C   0  0  0  0  0  0  0  0  0  0  0  0
   16.5794  -36.3382  -15.7101 Br  0  0  0  0  0  0  0  0  0  0  0  0
   14.9946  -37.1934  -10.6747 C   0  0  0  0  0  0  0  0  0  0  0  0
   15.2060  -38.6619  -11.0116 C   0  0  0  0  0  0  0  0  0  0  0  0
   14.2998  -39.3919  -11.7195 N   0  0  0  0  0  0  0  0  0  0  0  0
   16.1971  -39.2672  -10.6681 O   0  0  0  0  0  0  0  0  0  0  0  0
   14.4187  -40.7458  -12.0707 C   0  0  0  0  0  0  0  0  0  0  0  0
   15.2021  -41.1156  -13.1616 C   0  0  0  0  0  0  0  0  0  0  0  0
   15.2939  -42.4716  -13.4716 C   0  0  0  0  0  0  0  0  0  0  0  0
   14.6133  -43.4453  -12.7319 C   0  0  0  0  0  0  0  0  0  0  0  0
   13.8325  -43.0474  -11.6479 C   0  0  0  0  0  0  0  0  0  0  0  0
   13.7319  -41.6977  -11.3141 C   0  0  0  0  0  0  0  0  0  0  0  0
   16.1065  -42.8732  -14.5889 N   0  0  0  0  0  0  0  0  0  0  0  0
   17.0261  -43.8395  -14.6177 C   0  0  0  0  0  0  0  0  0  0  0  0
   17.5368  -43.8800  -15.7921 N   0  0  0  0  0  0  0  0  0  0  0  0
   16.9173  -42.9030  -16.5094 N   0  0  0  0  0  0  0  0  0  0  0  0
   16.0440  -42.2844  -15.7712 N   0  0  0  0  0  0  0  0  0  0  0  0
   17.3820  -44.7150  -13.4345 C   0  0  0  0  0  0  0  0  0  0  0  0
   18.0296  -33.8291  -11.7193 H   0  0  0  0  0  0  0  0  0  0  0  0
   15.2479  -37.3647  -13.3100 H   0  0  0  0  0  0  0  0  0  0  0  0
   17.9865  -34.3565  -14.0440 H   0  0  0  0  0  0  0  0  0  0  0  0
   16.1431  -35.5070   -9.1407 H   0  0  0  0  0  0  0  0  0  0  0  0
   17.6880  -35.0204   -9.3488 H   0  0  0  0  0  0  0  0  0  0  0  0
   16.4630  -33.9610   -9.5581 H   0  0  0  0  0  0  0  0  0  0  0  0
   14.0316  -36.9555  -10.8008 H   0  0  0  0  0  0  0  0  0  0  0  0
   15.2579  -37.0257   -9.7247 H   0  0  0  0  0  0  0  0  0  0  0  0
   13.4709  -38.9183  -12.0174 H   0  0  0  0  0  0  0  0  0  0  0  0
   15.6842  -40.4290  -13.7059 H   0  0  0  0  0  0  0  0  0  0  0  0
   14.6860  -44.4120  -12.9772 H   0  0  0  0  0  0  0  0  0  0  0  0
   13.3430  -43.7323  -11.1081 H   0  0  0  0  0  0  0  0  0  0  0  0
   13.1708  -41.4126  -10.5370 H   0  0  0  0  0  0  0  0  0  0  0  0
   18.0958  -45.3624  -13.7016 H   0  0  0  0  0  0  0  0  0  0  0  0
   17.7143  -44.1430  -12.6846 H   0  0  0  0  0  0  0  0  0  0  0  0
   16.5708  -45.2178  -13.1360 H   0  0  0  0  0  0  0  0  0  0  0  0
  1  2  2  0  0  0  0
  1  6  1  0  0  0  0
  1 25  1  0  0  0  0
  2  3  1  0  0  0  0
  2  7  1  0  0  0  0
  3  4  2  0  0  0  0
  3  9  1  0  0  0  0
  4  5  1  0  0  0  0
  4 26  1  0  0  0  0
  5  6  2  0  0  0  0
  5  8  1  0  0  0  0
  6 27  1  0  0  0  0
  7 28  1  0  0  0  0
  7 29  1  0  0  0  0
  7 30  1  0  0  0  0
  9 10  1  0  0  0  0
  9 31  1  0  0  0  0
  9 32  1  0  0  0  0
 10 11  1  0  0  0  0
 10 12  2  0  0  0  0
 11 13  1  0  0  0  0
 11 33  1  0  0  0  0
 13 14  2  0  0  0  0
 13 18  1  0  0  0  0
 14 15  1  0  0  0  0
 14 34  1  0  0  0  0
 15 16  2  0  0  0  0
 15 19  1  0  0  0  0
 16 17  1  0  0  0  0
 16 35  1  0  0  0  0
 17 18  2  0  0  0  0
 17 36  1  0  0  0  0
 18 37  1  0  0  0  0
 19 20  1  0  0  0  0
 19 23  1  0  0  0  0
 20 21  2  0  0  0  0
 20 24  1  0  0  0  0
 21 22  1  0  0  0  0
 22 23  2  0  0  0  0
 24 38  1  0  0  0  0
 24 39  1  0  0  0  0
 24 40  1  0  0  0  0
M  END
> <BIOSOLVEIT.HYDE_ESTIMATED_AFFINITY_LOWER_BOUNDARY [nM]>
10096805.196142

> <BIOSOLVEIT.HYDE_ESTIMATED_AFFINITY_UPPER_BOUNDARY [nM]>
1003177293.273517

> <BIOSOLVEIT.HYDE_LIGAND_EFFICIENCY range: ++, +, 0, -, -->
--

> <BIOSOLVEIT.HYDE_LIGAND_LIPOPHILIC_EFFICIENCY range: ++, +, 0, -, -->
--

> <BIOSOLVEIT.INTER_CLASH range: red, yellow, green>
green

> <BIOSOLVEIT.INTRA_CLASH range: red, yellow, green>
green

> <BIOSOLVEIT.LOGP>
3.22284

> <BIOSOLVEIT.MOLECULAR WEIGHT>
386.251

> <BIOSOLVEIT.MOLECULE_CHECKSUM>
LTUuNjkyMTQ7MC4yMzcxNzI=

> <BIOSOLVEIT.TORSION_QUALITY range: red, yellow, green, not rotatable>
red

> <BIOSOLVEIT.TPSA>
72.7

$$$$
PV-001794469959.****
b8Hydescor01032215413D 1   1.00000     0.00000     0
Hydescorer 1.1.2 b8048283
 40 42  0  0  0  0            999 V2000
   14.0558  -34.2655  -12.8563 C   0  0  0  0  0  0  0  0  0  0  0  0
   15.4037  -33.9136  -12.9448 C   0  0  0  0  0  0  0  0  0  0  0  0
   16.3224  -34.8280  -13.4844 C   0  0  0  0  0  0  0  0  0  0  0  0
   15.8690  -36.0808  -13.9043 C   0  0  0  0  0  0  0  0  0  0  0  0
   14.5239  -36.4214  -13.8141 C   0  0  0  0  0  0  0  0  0  0  0  0
   13.6170  -35.5106  -13.2892 C   0  0  0  0  0  0  0  0  0  0  0  0
   15.8165  -32.5344  -12.4593 C   0  0  0  0  0  0  0  0  0  0  0  0
   13.9373  -38.1173  -14.4150 Br  0  0  0  0  0  0  0  0  0  0  0  0
   17.8107  -34.5133  -13.6369 C   0  0  0  0  0  0  0  0  0  0  0  0
   18.6072  -35.7978  -13.4623 C   0  0  0  0  0  0  0  0  0  0  0  0
   18.7565  -36.4123  -12.2558 N   0  0  0  0  0  0  0  0  0  0  0  0
   19.1551  -36.3494  -14.3908 O   0  0  0  0  0  0  0  0  0  0  0  0
   19.4722  -37.5947  -12.0107 C   0  0  0  0  0  0  0  0  0  0  0  0
   18.8497  -38.8306  -12.1700 C   0  0  0  0  0  0  0  0  0  0  0  0
   19.5999  -39.9784  -11.9185 C   0  0  0  0  0  0  0  0  0  0  0  0
   20.9340  -39.9111  -11.5012 C   0  0  0  0  0  0  0  0  0  0  0  0
   21.5312  -38.6614  -11.3453 C   0  0  0  0  0  0  0  0  0  0  0  0
   20.8032  -37.4997  -11.5985 C   0  0  0  0  0  0  0  0  0  0  0  0
   18.9765  -41.2639  -12.0874 N   0  0  0  0  0  0  0  0  0  0  0  0
   19.4555  -42.3171  -12.7523 C   0  0  0  0  0  0  0  0  0  0  0  0
   18.5994  -43.2676  -12.6797 N   0  0  0  0  0  0  0  0  0  0  0  0
   17.5555  -42.7836  -11.9524 N   0  0  0  0  0  0  0  0  0  0  0  0
   17.7854  -41.5555  -11.5929 N   0  0  0  0  0  0  0  0  0  0  0  0
   20.7907  -42.3407  -13.4664 C   0  0  0  0  0  0  0  0  0  0  0  0
   13.3986  -33.6141  -12.4770 H   0  0  0  0  0  0  0  0  0  0  0  0
   16.5211  -36.7421  -14.2750 H   0  0  0  0  0  0  0  0  0  0  0  0
   12.6485  -35.7506  -13.2228 H   0  0  0  0  0  0  0  0  0  0  0  0
   16.8023  -32.4192  -12.5814 H   0  0  0  0  0  0  0  0  0  0  0  0
   15.3316  -31.8366  -12.9865 H   0  0  0  0  0  0  0  0  0  0  0  0
   15.5872  -32.4395  -11.4906 H   0  0  0  0  0  0  0  0  0  0  0  0
   18.0865  -33.8503  -12.9411 H   0  0  0  0  0  0  0  0  0  0  0  0
   17.9819  -34.1333  -14.5460 H   0  0  0  0  0  0  0  0  0  0  0  0
   18.3143  -35.9800  -11.4701 H   0  0  0  0  0  0  0  0  0  0  0  0
   17.8935  -38.8927  -12.4561 H   0  0  0  0  0  0  0  0  0  0  0  0
   21.4511  -40.7471  -11.3176 H   0  0  0  0  0  0  0  0  0  0  0  0
   22.4848  -38.5978  -11.0510 H   0  0  0  0  0  0  0  0  0  0  0  0
   21.2317  -36.6033  -11.4855 H   0  0  0  0  0  0  0  0  0  0  0  0
   20.9269  -43.2368  -13.8889 H   0  0  0  0  0  0  0  0  0  0  0  0
   20.8032  -41.6335  -14.1733 H   0  0  0  0  0  0  0  0  0  0  0  0
   21.5236  -42.1674  -12.8086 H   0  0  0  0  0  0  0  0  0  0  0  0
  1  2  2  0  0  0  0
  1  6  1  0  0  0  0
  1 25  1  0  0  0  0
  2  3  1  0  0  0  0
  2  7  1  0  0  0  0
  3  4  2  0  0  0  0
  3  9  1  0  0  0  0
  4  5  1  0  0  0  0
  4 26  1  0  0  0  0
  5  6  2  0  0  0  0
  5  8  1  0  0  0  0
  6 27  1  0  0  0  0
  7 28  1  0  0  0  0
  7 29  1  0  0  0  0
  7 30  1  0  0  0  0
  9 10  1  0  0  0  0
  9 31  1  0  0  0  0
  9 32  1  0  0  0  0
 10 11  1  0  0  0  0
 10 12  2  0  0  0  0
 11 13  1  0  0  0  0
 11 33  1  0  0  0  0
 13 14  2  0  0  0  0
 13 18  1  0  0  0  0
 14 15  1  0  0  0  0
 14 34  1  0  0  0  0
 15 16  2  0  0  0  0
 15 19  1  0  0  0  0
 16 17  1  0  0  0  0
 16 35  1  0  0  0  0
 17 18  2  0  0  0  0
 17 36  1  0  0  0  0
 18 37  1  0  0  0  0
 19 20  1  0  0  0  0
 19 23  1  0  0  0  0
 20 21  2  0  0  0  0
 20 24  1  0  0  0  0
 21 22  1  0  0  0  0
 22 23  2  0  0  0  0
 24 38  1  0  0  0  0
 24 39  1  0  0  0  0
 24 40  1  0  0  0  0
M  END
> <BIOSOLVEIT.HYDE_ESTIMATED_AFFINITY_LOWER_BOUNDARY [nM]>
15127869.225106

> <BIOSOLVEIT.HYDE_ESTIMATED_AFFINITY_UPPER_BOUNDARY [nM]>
1503043250.555744

> <BIOSOLVEIT.HYDE_LIGAND_EFFICIENCY range: ++, +, 0, -, -->
--

> <BIOSOLVEIT.HYDE_LIGAND_LIPOPHILIC_EFFICIENCY range: ++, +, 0, -, -->
--

> <BIOSOLVEIT.INTER_CLASH range: red, yellow, green>
green

> <BIOSOLVEIT.INTRA_CLASH range: red, yellow, green>
green

> <BIOSOLVEIT.LOGP>
3.22284

> <BIOSOLVEIT.MOLECULAR WEIGHT>
386.251

> <BIOSOLVEIT.MOLECULE_CHECKSUM>
LTQuNjg5ODU7MC4xOTU0MQ==

> <BIOSOLVEIT.TORSION_QUALITY range: red, yellow, green, not rotatable>
red

> <BIOSOLVEIT.TPSA>
72.7

$$$$
Z1551029475.****
b8Hydescor01032215413D 1   1.00000     0.00000     0
Hydescorer 1.1.2 b8048283
 39 41  0  0  0  0            999 V2000
   17.6843  -40.3293  -14.2585 C   0  0  0  0  0  0  0  0  0  0  0  0
   16.9808  -41.4413  -14.7202 C   0  0  0  0  0  0  0  0  0  0  0  0
   15.8181  -41.8570  -14.0716 C   0  0  0  0  0  0  0  0  0  0  0  0
   15.3725  -41.1467  -12.9522 C   0  0  0  0  0  0  0  0  0  0  0  0
   16.0805  -40.0555  -12.4567 C   0  0  0  0  0  0  0  0  0  0  0  0
   17.2217  -39.6408  -13.1357 C   0  0  0  0  0  0  0  0  0  0  0  0
   17.9354  -38.5212  -12.6728 N   0  0  0  0  0  0  0  0  0  0  0  0
   17.7049  -37.2172  -12.9990 C   0  0  0  0  0  0  0  0  0  0  0  0
   16.7801  -37.0348  -13.7583 O   0  0  0  0  0  0  0  0  0  0  0  0
   18.5336  -36.0670  -12.4458 C   0  0  0  0  0  0  0  0  0  0  0  0
   14.1414  -41.5166  -12.3078 N   0  0  0  0  0  0  0  0  0  0  0  0
   13.8685  -42.6795  -11.6804 C   0  0  0  0  0  0  0  0  0  0  0  0
   12.6861  -42.6207  -11.1416 N   0  0  0  0  0  0  0  0  0  0  0  0
   12.1698  -41.3756  -11.4405 N   0  0  0  0  0  0  0  0  0  0  0  0
   13.0474  -40.7374  -12.1354 C   0  0  0  0  0  0  0  0  0  0  0  0
   12.9036  -39.3364  -12.6917 C   0  0  0  0  0  0  0  0  0  0  0  0
   14.9762  -44.0262  -11.6406 S   0  0  0  0  0  0  0  0  0  0  0  0
   17.6409  -35.1711  -11.5884 C   0  0  0  0  0  0  0  0  0  0  0  0
   17.2769  -35.5454  -10.2925 C   0  0  0  0  0  0  0  0  0  0  0  0
   16.5172  -34.7297   -9.4641 C   0  0  0  0  0  0  0  0  0  0  0  0
   16.0821  -33.5006   -9.9472 C   0  0  0  0  0  0  0  0  0  0  0  0
   16.4010  -33.1112  -11.2483 C   0  0  0  0  0  0  0  0  0  0  0  0
   17.1692  -33.9439  -12.0662 C   0  0  0  0  0  0  0  0  0  0  0  0
   17.6792  -36.7404   -9.7994 F   0  0  0  0  0  0  0  0  0  0  0  0
   15.7999  -31.4436  -11.9048 Br  0  0  0  0  0  0  0  0  0  0  0  0
   18.5139  -40.0275  -14.7282 H   0  0  0  0  0  0  0  0  0  0  0  0
   17.3114  -41.9428  -15.5196 H   0  0  0  0  0  0  0  0  0  0  0  0
   15.3099  -42.6522  -14.4025 H   0  0  0  0  0  0  0  0  0  0  0  0
   15.7757  -39.5803  -11.6313 H   0  0  0  0  0  0  0  0  0  0  0  0
   18.6889  -38.6992  -12.0398 H   0  0  0  0  0  0  0  0  0  0  0  0
   18.9137  -35.5347  -13.2022 H   0  0  0  0  0  0  0  0  0  0  0  0
   19.2785  -36.4304  -11.8864 H   0  0  0  0  0  0  0  0  0  0  0  0
   12.0117  -38.9652  -12.4334 H   0  0  0  0  0  0  0  0  0  0  0  0
   13.6271  -38.7545  -12.3204 H   0  0  0  0  0  0  0  0  0  0  0  0
   12.9770  -39.3644  -13.6886 H   0  0  0  0  0  0  0  0  0  0  0  0
   16.2869  -35.0213   -8.5357 H   0  0  0  0  0  0  0  0  0  0  0  0
   15.5409  -32.8964   -9.3625 H   0  0  0  0  0  0  0  0  0  0  0  0
   17.3835  -33.6601  -13.0009 H   0  0  0  0  0  0  0  0  0  0  0  0
   12.2368  -43.3400  -10.6120 H   0  0  0  0  0  0  0  0  0  0  0  0
  1  2  2  0  0  0  0
  1  6  1  0  0  0  0
  1 26  1  0  0  0  0
  2  3  1  0  0  0  0
  2 27  1  0  0  0  0
  3  4  2  0  0  0  0
  3 28  1  0  0  0  0
  4  5  1  0  0  0  0
  4 11  1  0  0  0  0
  5  6  2  0  0  0  0
  5 29  1  0  0  0  0
  6  7  1  0  0  0  0
  7  8  1  0  0  0  0
  7 30  1  0  0  0  0
  8  9  2  0  0  0  0
  8 10  1  0  0  0  0
 10 18  1  0  0  0  0
 10 31  1  0  0  0  0
 10 32  1  0  0  0  0
 11 12  1  0  0  0  0
 11 15  1  0  0  0  0
 12 13  1  0  0  0  0
 12 17  2  0  0  0  0
 13 14  1  0  0  0  0
 14 15  2  0  0  0  0
 15 16  1  0  0  0  0
 16 33  1  0  0  0  0
 16 34  1  0  0  0  0
 16 35  1  0  0  0  0
 13 39  1  0  0  0  0
 18 19  2  0  0  0  0
 18 23  1  0  0  0  0
 19 20  1  0  0  0  0
 19 24  1  0  0  0  0
 20 21  2  0  0  0  0
 20 36  1  0  0  0  0
 21 22  1  0  0  0  0
 21 37  1  0  0  0  0
 22 23  2  0  0  0  0
 22 25  1  0  0  0  0
 23 38  1  0  0  0  0
M  END
> <BIOSOLVEIT.HYDE_ESTIMATED_AFFINITY_LOWER_BOUNDARY [nM]>
19893210.182522

> <BIOSOLVEIT.HYDE_ESTIMATED_AFFINITY_UPPER_BOUNDARY [nM]>
1976508049.600627

> <BIOSOLVEIT.HYDE_LIGAND_EFFICIENCY range: ++, +, 0, -, -->
--

> <BIOSOLVEIT.HYDE_LIGAND_LIPOPHILIC_EFFICIENCY range: ++, +, 0, -, -->
--

> <BIOSOLVEIT.INTER_CLASH range: red, yellow, green>
green

> <BIOSOLVEIT.INTRA_CLASH range: red, yellow, green>
green

> <BIOSOLVEIT.LOGP>
3.7973

> <BIOSOLVEIT.MOLECULAR WEIGHT>
421.292

> <BIOSOLVEIT.MOLECULE_CHECKSUM>
LTQuMDExMDE7MC4xNjA0NA==

> <BIOSOLVEIT.TORSION_QUALITY range: red, yellow, green, not rotatable>
yellow

> <BIOSOLVEIT.TPSA>
56.73

$$$$
Z1551029475.****
b8Hydescor01032215413D 1   1.00000     0.00000     0
Hydescorer 1.1.2 b8048283
 39 41  0  0  0  0            999 V2000
   18.2922  -37.3579  -13.8541 C   0  0  0  0  0  0  0  0  0  0  0  0
   19.3165  -38.0770  -14.4690 C   0  0  0  0  0  0  0  0  0  0  0  0
   19.9563  -39.1123  -13.7877 C   0  0  0  0  0  0  0  0  0  0  0  0
   19.5591  -39.4144  -12.4811 C   0  0  0  0  0  0  0  0  0  0  0  0
   18.5624  -38.6849  -11.8392 C   0  0  0  0  0  0  0  0  0  0  0  0
   17.9182  -37.6753  -12.5471 C   0  0  0  0  0  0  0  0  0  0  0  0
   16.8860  -36.9462  -11.9306 N   0  0  0  0  0  0  0  0  0  0  0  0
   16.9975  -36.1506  -10.8285 C   0  0  0  0  0  0  0  0  0  0  0  0
   18.1114  -36.0761  -10.3610 O   0  0  0  0  0  0  0  0  0  0  0  0
   15.8190  -35.3968  -10.2295 C   0  0  0  0  0  0  0  0  0  0  0  0
   20.1584  -40.5197  -11.7836 N   0  0  0  0  0  0  0  0  0  0  0  0
   21.2893  -40.5010  -11.0477 C   0  0  0  0  0  0  0  0  0  0  0  0
   21.4729  -41.6641  -10.4954 N   0  0  0  0  0  0  0  0  0  0  0  0
   20.4262  -42.4696  -10.8975 N   0  0  0  0  0  0  0  0  0  0  0  0
   19.6594  -41.7728  -11.6633 C   0  0  0  0  0  0  0  0  0  0  0  0
   18.3946  -42.2543  -12.3426 C   0  0  0  0  0  0  0  0  0  0  0  0
   22.3129  -39.0960  -10.9052 S   0  0  0  0  0  0  0  0  0  0  0  0
   15.7624  -33.9930  -10.8299 C   0  0  0  0  0  0  0  0  0  0  0  0
   15.0559  -33.7417  -12.0088 C   0  0  0  0  0  0  0  0  0  0  0  0
   14.9335  -32.4686  -12.5502 C   0  0  0  0  0  0  0  0  0  0  0  0
   15.5545  -31.4031  -11.9082 C   0  0  0  0  0  0  0  0  0  0  0  0
   16.2947  -31.6254  -10.7468 C   0  0  0  0  0  0  0  0  0  0  0  0
   16.4043  -32.9128  -10.2150 C   0  0  0  0  0  0  0  0  0  0  0  0
   14.4488  -34.7618  -12.6597 F   0  0  0  0  0  0  0  0  0  0  0  0
   17.1454  -30.1756   -9.8819 Br  0  0  0  0  0  0  0  0  0  0  0  0
   17.8289  -36.6205  -14.3456 H   0  0  0  0  0  0  0  0  0  0  0  0
   19.5936  -37.8494  -15.4026 H   0  0  0  0  0  0  0  0  0  0  0  0
   20.6890  -39.6316  -14.2274 H   0  0  0  0  0  0  0  0  0  0  0  0
   18.3149  -38.8821  -10.8905 H   0  0  0  0  0  0  0  0  0  0  0  0
   15.9775  -37.0186  -12.3421 H   0  0  0  0  0  0  0  0  0  0  0  0
   15.9324  -35.3322   -9.2381 H   0  0  0  0  0  0  0  0  0  0  0  0
   14.9705  -35.8837  -10.4368 H   0  0  0  0  0  0  0  0  0  0  0  0
   18.2314  -43.2115  -12.1033 H   0  0  0  0  0  0  0  0  0  0  0  0
   17.6207  -41.6983  -12.0390 H   0  0  0  0  0  0  0  0  0  0  0  0
   18.4962  -42.1712  -13.3339 H   0  0  0  0  0  0  0  0  0  0  0  0
   14.4075  -32.3208  -13.3878 H   0  0  0  0  0  0  0  0  0  0  0  0
   15.4705  -30.4780  -12.2786 H   0  0  0  0  0  0  0  0  0  0  0  0
   16.9459  -33.0633   -9.3880 H   0  0  0  0  0  0  0  0  0  0  0  0
   22.2282  -41.9251   -9.8942 H   0  0  0  0  0  0  0  0  0  0  0  0
  1  2  2  0  0  0  0
  1  6  1  0  0  0  0
  1 26  1  0  0  0  0
  2  3  1  0  0  0  0
  2 27  1  0  0  0  0
  3  4  2  0  0  0  0
  3 28  1  0  0  0  0
  4  5  1  0  0  0  0
  4 11  1  0  0  0  0
  5  6  2  0  0  0  0
  5 29  1  0  0  0  0
  6  7  1  0  0  0  0
  7  8  1  0  0  0  0
  7 30  1  0  0  0  0
  8  9  2  0  0  0  0
  8 10  1  0  0  0  0
 10 18  1  0  0  0  0
 10 31  1  0  0  0  0
 10 32  1  0  0  0  0
 11 12  1  0  0  0  0
 11 15  1  0  0  0  0
 12 13  1  0  0  0  0
 12 17  2  0  0  0  0
 13 14  1  0  0  0  0
 14 15  2  0  0  0  0
 15 16  1  0  0  0  0
 16 33  1  0  0  0  0
 16 34  1  0  0  0  0
 16 35  1  0  0  0  0
 13 39  1  0  0  0  0
 18 19  2  0  0  0  0
 18 23  1  0  0  0  0
 19 20  1  0  0  0  0
 19 24  1  0  0  0  0
 20 21  2  0  0  0  0
 20 36  1  0  0  0  0
 21 22  1  0  0  0  0
 21 37  1  0  0  0  0
 22 23  2  0  0  0  0
 22 25  1  0  0  0  0
 23 38  1  0  0  0  0
M  END
> <BIOSOLVEIT.HYDE_ESTIMATED_AFFINITY_LOWER_BOUNDARY [nM]>
8623945.098806

> <BIOSOLVEIT.HYDE_ESTIMATED_AFFINITY_UPPER_BOUNDARY [nM]>
856839934.365066

> <BIOSOLVEIT.HYDE_LIGAND_EFFICIENCY range: ++, +, 0, -, -->
--

> <BIOSOLVEIT.HYDE_LIGAND_LIPOPHILIC_EFFICIENCY range: ++, +, 0, -, -->
--

> <BIOSOLVEIT.INTER_CLASH range: red, yellow, green>
green

> <BIOSOLVEIT.INTRA_CLASH range: red, yellow, green>
green

> <BIOSOLVEIT.LOGP>
3.7973

> <BIOSOLVEIT.MOLECULAR WEIGHT>
421.292

> <BIOSOLVEIT.MOLECULE_CHECKSUM>
LTYuMDgzMDE7MC4yNDMzMg==

> <BIOSOLVEIT.TORSION_QUALITY range: red, yellow, green, not rotatable>
yellow

> <BIOSOLVEIT.TPSA>
56.73

$$$$
Z1551029475.****
b8Hydescor01032215413D 1   1.00000     0.00000     0
Hydescorer 1.1.2 b8048283
 39 41  0  0  0  0            999 V2000
   18.0767  -40.2373  -13.4587 C   0  0  0  0  0  0  0  0  0  0  0  0
   17.5786  -39.2267  -12.6371 C   0  0  0  0  0  0  0  0  0  0  0  0
   16.2327  -39.2169  -12.2713 C   0  0  0  0  0  0  0  0  0  0  0  0
   15.3922  -40.2302  -12.7431 C   0  0  0  0  0  0  0  0  0  0  0  0
   15.8641  -41.2275  -13.5919 C   0  0  0  0  0  0  0  0  0  0  0  0
   17.2158  -41.2342  -13.9209 C   0  0  0  0  0  0  0  0  0  0  0  0
   17.7224  -42.2503  -14.7505 N   0  0  0  0  0  0  0  0  0  0  0  0
   17.4265  -42.4494  -16.0670 C   0  0  0  0  0  0  0  0  0  0  0  0
   16.6545  -41.6493  -16.5452 O   0  0  0  0  0  0  0  0  0  0  0  0
   18.0264  -43.5816  -16.8878 C   0  0  0  0  0  0  0  0  0  0  0  0
   14.0169  -40.2777  -12.3258 N   0  0  0  0  0  0  0  0  0  0  0  0
   13.0555  -39.3674  -12.5860 C   0  0  0  0  0  0  0  0  0  0  0  0
   11.9151  -39.7893  -12.1244 N   0  0  0  0  0  0  0  0  0  0  0  0
   12.1494  -41.0151  -11.5337 N   0  0  0  0  0  0  0  0  0  0  0  0
   13.4027  -41.2852  -11.6616 C   0  0  0  0  0  0  0  0  0  0  0  0
   14.1086  -42.5246  -11.1529 C   0  0  0  0  0  0  0  0  0  0  0  0
   13.3628  -37.8641  -13.4154 S   0  0  0  0  0  0  0  0  0  0  0  0
   17.8223  -44.9023  -16.1472 C   0  0  0  0  0  0  0  0  0  0  0  0
   16.5396  -45.3807  -15.8678 C   0  0  0  0  0  0  0  0  0  0  0  0
   16.3160  -46.6045  -15.2503 C   0  0  0  0  0  0  0  0  0  0  0  0
   17.4092  -47.3772  -14.8750 C   0  0  0  0  0  0  0  0  0  0  0  0
   18.7038  -46.9134  -15.1106 C   0  0  0  0  0  0  0  0  0  0  0  0
   18.9092  -45.6808  -15.7358 C   0  0  0  0  0  0  0  0  0  0  0  0
   15.4571  -44.6451  -16.2140 F   0  0  0  0  0  0  0  0  0  0  0  0
   20.1878  -47.9625  -14.5904 Br  0  0  0  0  0  0  0  0  0  0  0  0
   19.0433  -40.2477  -13.7148 H   0  0  0  0  0  0  0  0  0  0  0  0
   18.1890  -38.5058  -12.3088 H   0  0  0  0  0  0  0  0  0  0  0  0
   15.8736  -38.4950  -11.6797 H   0  0  0  0  0  0  0  0  0  0  0  0
   15.2456  -41.9233  -13.9569 H   0  0  0  0  0  0  0  0  0  0  0  0
   18.3651  -42.8925  -14.3327 H   0  0  0  0  0  0  0  0  0  0  0  0
   19.0045  -43.4187  -17.0176 H   0  0  0  0  0  0  0  0  0  0  0  0
   17.5746  -43.6246  -17.7789 H   0  0  0  0  0  0  0  0  0  0  0  0
   13.4479  -43.1210  -10.6970 H   0  0  0  0  0  0  0  0  0  0  0  0
   14.5223  -43.0118  -11.9219 H   0  0  0  0  0  0  0  0  0  0  0  0
   14.8216  -42.2594  -10.5039 H   0  0  0  0  0  0  0  0  0  0  0  0
   15.3843  -46.9245  -15.0785 H   0  0  0  0  0  0  0  0  0  0  0  0
   17.2677  -48.2647  -14.4365 H   0  0  0  0  0  0  0  0  0  0  0  0
   19.8410  -45.3525  -15.8905 H   0  0  0  0  0  0  0  0  0  0  0  0
   11.0363  -39.3162  -12.1856 H   0  0  0  0  0  0  0  0  0  0  0  0
  1  2  2  0  0  0  0
  1  6  1  0  0  0  0
  1 26  1  0  0  0  0
  2  3  1  0  0  0  0
  2 27  1  0  0  0  0
  3  4  2  0  0  0  0
  3 28  1  0  0  0  0
  4  5  1  0  0  0  0
  4 11  1  0  0  0  0
  5  6  2  0  0  0  0
  5 29  1  0  0  0  0
  6  7  1  0  0  0  0
  7  8  1  0  0  0  0
  7 30  1  0  0  0  0
  8  9  2  0  0  0  0
  8 10  1  0  0  0  0
 10 18  1  0  0  0  0
 10 31  1  0  0  0  0
 10 32  1  0  0  0  0
 11 12  1  0  0  0  0
 11 15  1  0  0  0  0
 12 13  1  0  0  0  0
 12 17  2  0  0  0  0
 13 14  1  0  0  0  0
 14 15  2  0  0  0  0
 15 16  1  0  0  0  0
 16 33  1  0  0  0  0
 16 34  1  0  0  0  0
 16 35  1  0  0  0  0
 13 39  1  0  0  0  0
 18 19  2  0  0  0  0
 18 23  1  0  0  0  0
 19 20  1  0  0  0  0
 19 24  1  0  0  0  0
 20 21  2  0  0  0  0
 20 36  1  0  0  0  0
 21 22  1  0  0  0  0
 21 37  1  0  0  0  0
 22 23  2  0  0  0  0
 22 25  1  0  0  0  0
 23 38  1  0  0  0  0
M  END
> <BIOSOLVEIT.HYDE_ESTIMATED_AFFINITY_LOWER_BOUNDARY [nM]>
761636637.007839

> <BIOSOLVEIT.HYDE_ESTIMATED_AFFINITY_UPPER_BOUNDARY [nM]>
75673103038.911560

> <BIOSOLVEIT.HYDE_LIGAND_EFFICIENCY range: ++, +, 0, -, -->
--

> <BIOSOLVEIT.HYDE_LIGAND_LIPOPHILIC_EFFICIENCY range: ++, +, 0, -, -->
--

> <BIOSOLVEIT.INTER_CLASH range: red, yellow, green>
green

> <BIOSOLVEIT.INTRA_CLASH range: red, yellow, green>
green

> <BIOSOLVEIT.LOGP>
3.7973

> <BIOSOLVEIT.MOLECULAR WEIGHT>
421.292

> <BIOSOLVEIT.MOLECULE_CHECKSUM>
NS4wMjUwMjsw

> <BIOSOLVEIT.TORSION_QUALITY range: red, yellow, green, not rotatable>
red

> <BIOSOLVEIT.TPSA>
56.73

$$$$
Z52832973.****
b8Hydescor01032215413D 1   1.00000     0.00000     0
Hydescorer 1.1.2 b8048283
 37 38  0  0  0  0            999 V2000
   15.1581  -31.7787  -11.2464 C   0  0  0  0  0  0  0  0  0  0  0  0
   16.1574  -31.6848  -10.2779 C   0  0  0  0  0  0  0  0  0  0  0  0
   16.5883  -32.8335   -9.6196 C   0  0  0  0  0  0  0  0  0  0  0  0
   16.0228  -34.0712   -9.9311 C   0  0  0  0  0  0  0  0  0  0  0  0
   15.0354  -34.1663  -10.9164 C   0  0  0  0  0  0  0  0  0  0  0  0
   14.6041  -33.0164  -11.5658 C   0  0  0  0  0  0  0  0  0  0  0  0
   16.7555  -30.3377   -9.9342 C   0  0  0  0  0  0  0  0  0  0  0  0
   16.4840  -35.1940   -9.2348 N   0  0  0  0  0  0  0  0  0  0  0  0
   15.5225  -36.3118   -8.9762 C   0  0  0  0  0  0  0  0  0  0  0  0
   16.0405  -37.5795   -9.6524 C   0  0  0  0  0  0  0  0  0  0  0  0
   15.2335  -38.1244  -10.6186 N   0  0  0  0  0  0  0  0  0  0  0  0
   15.4390  -39.2902  -11.4181 C   0  0  0  0  0  0  0  0  0  0  0  0
   16.3273  -39.1915  -12.5013 C   0  0  0  0  0  0  0  0  0  0  0  0
   16.5521  -40.3047  -13.3074 C   0  0  0  0  0  0  0  0  0  0  0  0
   15.9093  -41.5103  -13.0323 C   0  0  0  0  0  0  0  0  0  0  0  0
   15.0378  -41.6274  -11.9402 C   0  0  0  0  0  0  0  0  0  0  0  0
   14.8075  -40.5036  -11.1351 C   0  0  0  0  0  0  0  0  0  0  0  0
   17.1503  -37.7039  -12.8575 Cl  0  0  0  0  0  0  0  0  0  0  0  0
   17.0969  -38.0965   -9.3503 O   0  0  0  0  0  0  0  0  0  0  0  0
   14.3217  -42.9530  -11.6357 C   0  0  0  0  0  0  0  0  0  0  0  0
   14.1344  -43.6592  -12.7682 F   0  0  0  0  0  0  0  0  0  0  0  0
   15.0552  -43.6957  -10.7863 F   0  0  0  0  0  0  0  0  0  0  0  0
   13.1288  -42.6980  -11.0808 F   0  0  0  0  0  0  0  0  0  0  0  0
   14.8381  -30.9544  -11.7134 H   0  0  0  0  0  0  0  0  0  0  0  0
   17.3033  -32.7719   -8.9232 H   0  0  0  0  0  0  0  0  0  0  0  0
   14.6427  -35.0553  -11.1520 H   0  0  0  0  0  0  0  0  0  0  0  0
   13.8925  -33.0774  -12.2658 H   0  0  0  0  0  0  0  0  0  0  0  0
   17.4521  -30.4531   -9.2260 H   0  0  0  0  0  0  0  0  0  0  0  0
   17.1735  -29.9403  -10.7512 H   0  0  0  0  0  0  0  0  0  0  0  0
   16.0363  -29.7295   -9.5984 H   0  0  0  0  0  0  0  0  0  0  0  0
   17.4311  -35.2482   -8.9184 H   0  0  0  0  0  0  0  0  0  0  0  0
   14.6253  -36.0754   -9.3492 H   0  0  0  0  0  0  0  0  0  0  0  0
   15.4440  -36.4654   -7.9912 H   0  0  0  0  0  0  0  0  0  0  0  0
   14.3780  -37.6350  -10.7876 H   0  0  0  0  0  0  0  0  0  0  0  0
   17.1763  -40.2388  -14.0858 H   0  0  0  0  0  0  0  0  0  0  0  0
   16.0717  -42.3020  -13.6213 H   0  0  0  0  0  0  0  0  0  0  0  0
   14.1875  -40.5708  -10.3534 H   0  0  0  0  0  0  0  0  0  0  0  0
  1  2  2  0  0  0  0
  1  6  1  0  0  0  0
  1 24  1  0  0  0  0
  2  3  1  0  0  0  0
  2  7  1  0  0  0  0
  3  4  2  0  0  0  0
  3 25  1  0  0  0  0
  4  5  1  0  0  0  0
  4  8  1  0  0  0  0
  5  6  2  0  0  0  0
  5 26  1  0  0  0  0
  6 27  1  0  0  0  0
  7 28  1  0  0  0  0
  7 29  1  0  0  0  0
  7 30  1  0  0  0  0
  8  9  1  0  0  0  0
  8 31  1  0  0  0  0
  9 10  1  0  0  0  0
  9 32  1  0  0  0  0
  9 33  1  0  0  0  0
 10 11  1  0  0  0  0
 10 19  2  0  0  0  0
 11 12  1  0  0  0  0
 11 34  1  0  0  0  0
 12 13  2  0  0  0  0
 12 17  1  0  0  0  0
 13 14  1  0  0  0  0
 13 18  1  0  0  0  0
 14 15  2  0  0  0  0
 14 35  1  0  0  0  0
 15 16  1  0  0  0  0
 15 36  1  0  0  0  0
 16 17  2  0  0  0  0
 16 20  1  0  0  0  0
 17 37  1  0  0  0  0
 20 21  1  0  0  0  0
 20 22  1  0  0  0  0
 20 23  1  0  0  0  0
M  END
> <BIOSOLVEIT.HYDE_ESTIMATED_AFFINITY_LOWER_BOUNDARY [nM]>
23815.738503

> <BIOSOLVEIT.HYDE_ESTIMATED_AFFINITY_UPPER_BOUNDARY [nM]>
2366234.430062

> <BIOSOLVEIT.HYDE_LIGAND_EFFICIENCY range: ++, +, 0, -, -->
-

> <BIOSOLVEIT.HYDE_LIGAND_LIPOPHILIC_EFFICIENCY range: ++, +, 0, -, -->
--

> <BIOSOLVEIT.INTER_CLASH range: red, yellow, green>
green

> <BIOSOLVEIT.INTRA_CLASH range: red, yellow, green>
green

> <BIOSOLVEIT.LOGP>
4.71782

> <BIOSOLVEIT.MOLECULAR WEIGHT>
342.747

> <BIOSOLVEIT.MOLECULE_CHECKSUM>
LTIwLjY4ODk7MC44OTk1MTc=

> <BIOSOLVEIT.TORSION_QUALITY range: red, yellow, green, not rotatable>
yellow

> <BIOSOLVEIT.TPSA>
41.13

$$$$
Z52832973.****
b8Hydescor01032215413D 1   1.00000     0.00000     0
Hydescorer 1.1.2 b8048283
 37 38  0  0  0  0            999 V2000
   14.8577  -32.4225  -11.0740 C   0  0  0  0  0  0  0  0  0  0  0  0
   15.9479  -32.3410  -10.2078 C   0  0  0  0  0  0  0  0  0  0  0  0
   16.6506  -33.4961   -9.8750 C   0  0  0  0  0  0  0  0  0  0  0  0
   16.2646  -34.7269  -10.4087 C   0  0  0  0  0  0  0  0  0  0  0  0
   15.1840  -34.8036  -11.2925 C   0  0  0  0  0  0  0  0  0  0  0  0
   14.4820  -33.6494  -11.6162 C   0  0  0  0  0  0  0  0  0  0  0  0
   16.3516  -31.0058   -9.6209 C   0  0  0  0  0  0  0  0  0  0  0  0
   16.9976  -35.8593  -10.0361 N   0  0  0  0  0  0  0  0  0  0  0  0
   16.2913  -36.9457   -9.2867 C   0  0  0  0  0  0  0  0  0  0  0  0
   15.6811  -37.9245  -10.2877 C   0  0  0  0  0  0  0  0  0  0  0  0
   16.4561  -38.2438  -11.3735 N   0  0  0  0  0  0  0  0  0  0  0  0
   16.1677  -39.1171  -12.4664 C   0  0  0  0  0  0  0  0  0  0  0  0
   16.1451  -38.5638  -13.7570 C   0  0  0  0  0  0  0  0  0  0  0  0
   15.8641  -39.3813  -14.8487 C   0  0  0  0  0  0  0  0  0  0  0  0
   15.6197  -40.7406  -14.6618 C   0  0  0  0  0  0  0  0  0  0  0  0
   15.6618  -41.3089  -13.3807 C   0  0  0  0  0  0  0  0  0  0  0  0
   15.9374  -40.4826  -12.2829 C   0  0  0  0  0  0  0  0  0  0  0  0
   16.4588  -36.8754  -14.0177 Cl  0  0  0  0  0  0  0  0  0  0  0  0
   14.5670  -38.3887  -10.1520 O   0  0  0  0  0  0  0  0  0  0  0  0
   15.3872  -42.8064  -13.1682 C   0  0  0  0  0  0  0  0  0  0  0  0
   15.3089  -43.4446  -14.3526 F   0  0  0  0  0  0  0  0  0  0  0  0
   16.3768  -43.3650  -12.4473 F   0  0  0  0  0  0  0  0  0  0  0  0
   14.2266  -42.9584  -12.5156 F   0  0  0  0  0  0  0  0  0  0  0  0
   14.3437  -31.5968  -11.3066 H   0  0  0  0  0  0  0  0  0  0  0  0
   17.4322  -33.4439   -9.2534 H   0  0  0  0  0  0  0  0  0  0  0  0
   14.9184  -35.6826  -11.6886 H   0  0  0  0  0  0  0  0  0  0  0  0
   13.7032  -33.6995  -12.2415 H   0  0  0  0  0  0  0  0  0  0  0  0
   17.1465  -31.1294   -9.0268 H   0  0  0  0  0  0  0  0  0  0  0  0
   16.5831  -30.3731  -10.3600 H   0  0  0  0  0  0  0  0  0  0  0  0
   15.5921  -30.6325   -9.0882 H   0  0  0  0  0  0  0  0  0  0  0  0
   17.9679  -35.9406  -10.2644 H   0  0  0  0  0  0  0  0  0  0  0  0
   15.5675  -36.5481   -8.7227 H   0  0  0  0  0  0  0  0  0  0  0  0
   16.9432  -37.4277   -8.7013 H   0  0  0  0  0  0  0  0  0  0  0  0
   17.3524  -37.8012  -11.4044 H   0  0  0  0  0  0  0  0  0  0  0  0
   15.8375  -38.9919  -15.7693 H   0  0  0  0  0  0  0  0  0  0  0  0
   15.4117  -41.3180  -15.4514 H   0  0  0  0  0  0  0  0  0  0  0  0
   15.9694  -40.8727  -11.3627 H   0  0  0  0  0  0  0  0  0  0  0  0
  1  2  2  0  0  0  0
  1  6  1  0  0  0  0
  1 24  1  0  0  0  0
  2  3  1  0  0  0  0
  2  7  1  0  0  0  0
  3  4  2  0  0  0  0
  3 25  1  0  0  0  0
  4  5  1  0  0  0  0
  4  8  1  0  0  0  0
  5  6  2  0  0  0  0
  5 26  1  0  0  0  0
  6 27  1  0  0  0  0
  7 28  1  0  0  0  0
  7 29  1  0  0  0  0
  7 30  1  0  0  0  0
  8  9  1  0  0  0  0
  8 31  1  0  0  0  0
  9 10  1  0  0  0  0
  9 32  1  0  0  0  0
  9 33  1  0  0  0  0
 10 11  1  0  0  0  0
 10 19  2  0  0  0  0
 11 12  1  0  0  0  0
 11 34  1  0  0  0  0
 12 13  2  0  0  0  0
 12 17  1  0  0  0  0
 13 14  1  0  0  0  0
 13 18  1  0  0  0  0
 14 15  2  0  0  0  0
 14 35  1  0  0  0  0
 15 16  1  0  0  0  0
 15 36  1  0  0  0  0
 16 17  2  0  0  0  0
 16 20  1  0  0  0  0
 17 37  1  0  0  0  0
 20 21  1  0  0  0  0
 20 22  1  0  0  0  0
 20 23  1  0  0  0  0
M  END
> <BIOSOLVEIT.HYDE_ESTIMATED_AFFINITY_LOWER_BOUNDARY [nM]>
3057068.892314

> <BIOSOLVEIT.HYDE_ESTIMATED_AFFINITY_UPPER_BOUNDARY [nM]>
303737869.273168

> <BIOSOLVEIT.HYDE_LIGAND_EFFICIENCY range: ++, +, 0, -, -->
--

> <BIOSOLVEIT.HYDE_LIGAND_LIPOPHILIC_EFFICIENCY range: ++, +, 0, -, -->
--

> <BIOSOLVEIT.INTER_CLASH range: red, yellow, green>
green

> <BIOSOLVEIT.INTRA_CLASH range: red, yellow, green>
green

> <BIOSOLVEIT.LOGP>
4.71782

> <BIOSOLVEIT.MOLECULAR WEIGHT>
342.747

> <BIOSOLVEIT.MOLECULE_CHECKSUM>
LTguNjUzOTswLjM3NjI1Nw==

> <BIOSOLVEIT.TORSION_QUALITY range: red, yellow, green, not rotatable>
yellow

> <BIOSOLVEIT.TPSA>
41.13

$$$$
Z52832973.****
b8Hydescor01032215413D 1   1.00000     0.00000     0
Hydescorer 1.1.2 b8048283
 37 38  0  0  0  0            999 V2000
   16.0334  -32.8183  -12.2896 C   0  0  0  0  0  0  0  0  0  0  0  0
   16.7364  -33.9967  -12.5404 C   0  0  0  0  0  0  0  0  0  0  0  0
   17.2088  -34.7567  -11.4737 C   0  0  0  0  0  0  0  0  0  0  0  0
   16.9770  -34.3398  -10.1618 C   0  0  0  0  0  0  0  0  0  0  0  0
   16.2550  -33.1689   -9.9121 C   0  0  0  0  0  0  0  0  0  0  0  0
   15.7913  -32.4105  -10.9798 C   0  0  0  0  0  0  0  0  0  0  0  0
   16.9973  -34.4349  -13.9652 C   0  0  0  0  0  0  0  0  0  0  0  0
   17.4805  -35.1340   -9.1254 N   0  0  0  0  0  0  0  0  0  0  0  0
   16.5688  -36.1421   -8.4980 C   0  0  0  0  0  0  0  0  0  0  0  0
   16.3627  -37.3001   -9.4722 C   0  0  0  0  0  0  0  0  0  0  0  0
   15.2271  -37.2518  -10.2401 N   0  0  0  0  0  0  0  0  0  0  0  0
   14.7622  -38.1732  -11.2277 C   0  0  0  0  0  0  0  0  0  0  0  0
   14.1058  -37.6490  -12.3532 C   0  0  0  0  0  0  0  0  0  0  0  0
   13.6342  -38.5145  -13.3369 C   0  0  0  0  0  0  0  0  0  0  0  0
   13.8241  -39.8893  -13.2103 C   0  0  0  0  0  0  0  0  0  0  0  0
   14.4980  -40.4228  -12.1024 C   0  0  0  0  0  0  0  0  0  0  0  0
   14.9649  -39.5502  -11.1102 C   0  0  0  0  0  0  0  0  0  0  0  0
   13.8680  -35.9386  -12.5406 Cl  0  0  0  0  0  0  0  0  0  0  0  0
   17.1428  -38.2266   -9.5605 O   0  0  0  0  0  0  0  0  0  0  0  0
   14.7049  -41.9388  -11.9548 C   0  0  0  0  0  0  0  0  0  0  0  0
   14.6025  -42.5480  -13.1526 F   0  0  0  0  0  0  0  0  0  0  0  0
   15.9247  -42.1966  -11.4481 F   0  0  0  0  0  0  0  0  0  0  0  0
   13.7717  -42.4381  -11.1326 F   0  0  0  0  0  0  0  0  0  0  0  0
   15.7020  -32.2640  -13.0532 H   0  0  0  0  0  0  0  0  0  0  0  0
   17.7145  -35.6018  -11.6475 H   0  0  0  0  0  0  0  0  0  0  0  0
   16.0737  -32.8796   -8.9723 H   0  0  0  0  0  0  0  0  0  0  0  0
   15.2814  -31.5678  -10.8072 H   0  0  0  0  0  0  0  0  0  0  0  0
   17.5096  -35.2937  -13.9613 H   0  0  0  0  0  0  0  0  0  0  0  0
   16.1261  -34.5686  -14.4376 H   0  0  0  0  0  0  0  0  0  0  0  0
   17.5286  -33.7320  -14.4381 H   0  0  0  0  0  0  0  0  0  0  0  0
   18.4245  -35.0308   -8.8120 H   0  0  0  0  0  0  0  0  0  0  0  0
   15.6878  -35.7156   -8.2930 H   0  0  0  0  0  0  0  0  0  0  0  0
   16.9784  -36.4842   -7.6523 H   0  0  0  0  0  0  0  0  0  0  0  0
   14.6400  -36.4570  -10.0863 H   0  0  0  0  0  0  0  0  0  0  0  0
   13.1580  -38.1485  -14.1365 H   0  0  0  0  0  0  0  0  0  0  0  0
   13.4754  -40.5032  -13.9185 H   0  0  0  0  0  0  0  0  0  0  0  0
   15.4459  -39.9156  -10.3132 H   0  0  0  0  0  0  0  0  0  0  0  0
  1  2  2  0  0  0  0
  1  6  1  0  0  0  0
  1 24  1  0  0  0  0
  2  3  1  0  0  0  0
  2  7  1  0  0  0  0
  3  4  2  0  0  0  0
  3 25  1  0  0  0  0
  4  5  1  0  0  0  0
  4  8  1  0  0  0  0
  5  6  2  0  0  0  0
  5 26  1  0  0  0  0
  6 27  1  0  0  0  0
  7 28  1  0  0  0  0
  7 29  1  0  0  0  0
  7 30  1  0  0  0  0
  8  9  1  0  0  0  0
  8 31  1  0  0  0  0
  9 10  1  0  0  0  0
  9 32  1  0  0  0  0
  9 33  1  0  0  0  0
 10 11  1  0  0  0  0
 10 19  2  0  0  0  0
 11 12  1  0  0  0  0
 11 34  1  0  0  0  0
 12 13  2  0  0  0  0
 12 17  1  0  0  0  0
 13 14  1  0  0  0  0
 13 18  1  0  0  0  0
 14 15  2  0  0  0  0
 14 35  1  0  0  0  0
 15 16  1  0  0  0  0
 15 36  1  0  0  0  0
 16 17  2  0  0  0  0
 16 20  1  0  0  0  0
 17 37  1  0  0  0  0
 20 21  1  0  0  0  0
 20 22  1  0  0  0  0
 20 23  1  0  0  0  0
M  END
> <BIOSOLVEIT.HYDE_ESTIMATED_AFFINITY_LOWER_BOUNDARY [nM]>
2502560.116282

> <BIOSOLVEIT.HYDE_ESTIMATED_AFFINITY_UPPER_BOUNDARY [nM]>
248644143.859029

> <BIOSOLVEIT.HYDE_LIGAND_EFFICIENCY range: ++, +, 0, -, -->
--

> <BIOSOLVEIT.HYDE_LIGAND_LIPOPHILIC_EFFICIENCY range: ++, +, 0, -, -->
--

> <BIOSOLVEIT.INTER_CLASH range: red, yellow, green>
green

> <BIOSOLVEIT.INTRA_CLASH range: red, yellow, green>
green

> <BIOSOLVEIT.LOGP>
4.71782

> <BIOSOLVEIT.MOLECULAR WEIGHT>
342.747

> <BIOSOLVEIT.MOLECULE_CHECKSUM>
LTkuMTUwMDQ7MC4zOTc4Mjg=

> <BIOSOLVEIT.TORSION_QUALITY range: red, yellow, green, not rotatable>
red

> <BIOSOLVEIT.TPSA>
41.13

$$$$
Z52832973.****
b8Hydescor01032215413D 1   1.00000     0.00000     0
Hydescorer 1.1.2 b8048283
 37 38  0  0  0  0            999 V2000
   15.2860  -35.3640  -10.1652 C   0  0  0  0  0  0  0  0  0  0  0  0
   14.9630  -35.9079  -11.4083 C   0  0  0  0  0  0  0  0  0  0  0  0
   15.9288  -35.9574  -12.4101 C   0  0  0  0  0  0  0  0  0  0  0  0
   17.2129  -35.4665  -12.1676 C   0  0  0  0  0  0  0  0  0  0  0  0
   17.5406  -34.9399  -10.9145 C   0  0  0  0  0  0  0  0  0  0  0  0
   16.5716  -34.8866   -9.9203 C   0  0  0  0  0  0  0  0  0  0  0  0
   13.5648  -36.4244  -11.6695 C   0  0  0  0  0  0  0  0  0  0  0  0
   18.1446  -35.5308  -13.2099 N   0  0  0  0  0  0  0  0  0  0  0  0
   19.2612  -36.5219  -13.1020 C   0  0  0  0  0  0  0  0  0  0  0  0
   18.7255  -37.9127  -13.4356 C   0  0  0  0  0  0  0  0  0  0  0  0
   18.3631  -38.6949  -12.3685 N   0  0  0  0  0  0  0  0  0  0  0  0
   17.8357  -40.0225  -12.3570 C   0  0  0  0  0  0  0  0  0  0  0  0
   18.7491  -41.0889  -12.3785 C   0  0  0  0  0  0  0  0  0  0  0  0
   18.2748  -42.3982  -12.3721 C   0  0  0  0  0  0  0  0  0  0  0  0
   16.9041  -42.6468  -12.3317 C   0  0  0  0  0  0  0  0  0  0  0  0
   15.9830  -41.5905  -12.2869 C   0  0  0  0  0  0  0  0  0  0  0  0
   16.4628  -40.2738  -12.3013 C   0  0  0  0  0  0  0  0  0  0  0  0
   20.4625  -40.8055  -12.4163 Cl  0  0  0  0  0  0  0  0  0  0  0  0
   18.6359  -38.3227  -14.5752 O   0  0  0  0  0  0  0  0  0  0  0  0
   14.4700  -41.8590  -12.2482 C   0  0  0  0  0  0  0  0  0  0  0  0
   13.9931  -41.6939  -10.9985 F   0  0  0  0  0  0  0  0  0  0  0  0
   13.8238  -41.0089  -13.0672 F   0  0  0  0  0  0  0  0  0  0  0  0
   14.2305  -43.1176  -12.6415 F   0  0  0  0  0  0  0  0  0  0  0  0
   14.5919  -35.3165   -9.4469 H   0  0  0  0  0  0  0  0  0  0  0  0
   15.7025  -36.3449  -13.3038 H   0  0  0  0  0  0  0  0  0  0  0  0
   18.4654  -34.6043  -10.7353 H   0  0  0  0  0  0  0  0  0  0  0  0
   16.7981  -34.5037   -9.0248 H   0  0  0  0  0  0  0  0  0  0  0  0
   13.5086  -36.7768  -12.6036 H   0  0  0  0  0  0  0  0  0  0  0  0
   13.3543  -37.1581  -11.0232 H   0  0  0  0  0  0  0  0  0  0  0  0
   12.9074  -35.6798  -11.5540 H   0  0  0  0  0  0  0  0  0  0  0  0
   18.0664  -34.9305  -14.0057 H   0  0  0  0  0  0  0  0  0  0  0  0
   19.6249  -36.5172  -12.1705 H   0  0  0  0  0  0  0  0  0  0  0  0
   19.9879  -36.2795  -13.7447 H   0  0  0  0  0  0  0  0  0  0  0  0
   18.4859  -38.2754  -11.4692 H   0  0  0  0  0  0  0  0  0  0  0  0
   18.9196  -43.1622  -12.3964 H   0  0  0  0  0  0  0  0  0  0  0  0
   16.5733  -43.5905  -12.3347 H   0  0  0  0  0  0  0  0  0  0  0  0
   15.8184  -39.5097  -12.2714 H   0  0  0  0  0  0  0  0  0  0  0  0
  1  2  2  0  0  0  0
  1  6  1  0  0  0  0
  1 24  1  0  0  0  0
  2  3  1  0  0  0  0
  2  7  1  0  0  0  0
  3  4  2  0  0  0  0
  3 25  1  0  0  0  0
  4  5  1  0  0  0  0
  4  8  1  0  0  0  0
  5  6  2  0  0  0  0
  5 26  1  0  0  0  0
  6 27  1  0  0  0  0
  7 28  1  0  0  0  0
  7 29  1  0  0  0  0
  7 30  1  0  0  0  0
  8  9  1  0  0  0  0
  8 31  1  0  0  0  0
  9 10  1  0  0  0  0
  9 32  1  0  0  0  0
  9 33  1  0  0  0  0
 10 11  1  0  0  0  0
 10 19  2  0  0  0  0
 11 12  1  0  0  0  0
 11 34  1  0  0  0  0
 12 13  2  0  0  0  0
 12 17  1  0  0  0  0
 13 14  1  0  0  0  0
 13 18  1  0  0  0  0
 14 15  2  0  0  0  0
 14 35  1  0  0  0  0
 15 16  1  0  0  0  0
 15 36  1  0  0  0  0
 16 17  2  0  0  0  0
 16 20  1  0  0  0  0
 17 37  1  0  0  0  0
 20 21  1  0  0  0  0
 20 22  1  0  0  0  0
 20 23  1  0  0  0  0
M  END
> <BIOSOLVEIT.HYDE_ESTIMATED_AFFINITY_LOWER_BOUNDARY [nM]>
156221295.627317

> <BIOSOLVEIT.HYDE_ESTIMATED_AFFINITY_UPPER_BOUNDARY [nM]>
15521509373.972689

> <BIOSOLVEIT.HYDE_LIGAND_EFFICIENCY range: ++, +, 0, -, -->
--

> <BIOSOLVEIT.HYDE_LIGAND_LIPOPHILIC_EFFICIENCY range: ++, +, 0, -, -->
--

> <BIOSOLVEIT.INTER_CLASH range: red, yellow, green>
green

> <BIOSOLVEIT.INTRA_CLASH range: red, yellow, green>
green

> <BIOSOLVEIT.LOGP>
4.71782

> <BIOSOLVEIT.MOLECULAR WEIGHT>
342.747

> <BIOSOLVEIT.MOLECULE_CHECKSUM>
MS4wOTc4Njsw

> <BIOSOLVEIT.TORSION_QUALITY range: red, yellow, green, not rotatable>
red

> <BIOSOLVEIT.TPSA>
41.13

$$$$
G11.sdf
b8Hydescor01032215413D 1   1.00000     0.00000     0
Hydescorer 1.1.2 b8048283
 83 85  0  0  0  0            999 V2000
   16.3714  -38.2158  -16.6316 C   0  0  0  0  0  0  0  0  0  0  0  0
   15.7089  -38.2943  -15.4103 C   0  0  0  0  0  0  0  0  0  0  0  0
   15.5916  -37.1664  -14.6028 C   0  0  0  0  0  0  0  0  0  0  0  0
   16.1381  -35.9471  -15.0198 C   0  0  0  0  0  0  0  0  0  0  0  0
   16.8151  -35.8664  -16.2413 C   0  0  0  0  0  0  0  0  0  0  0  0
   16.9250  -37.0003  -17.0417 C   0  0  0  0  0  0  0  0  0  0  0  0
   17.7477  -36.9054  -18.5637 Cl  0  0  0  0  0  0  0  0  0  0  0  0
   15.9923  -34.8165  -14.1798 N   0  0  0  0  0  0  0  0  0  0  0  0
   17.2493  -34.2194  -13.6571 C   0  0  0  0  0  0  0  0  0  0  0  0
   14.8231  -34.7457  -13.2774 C   0  0  0  0  0  0  0  0  0  0  0  0
   17.8969  -35.2472  -12.7447 C   0  0  0  0  0  0  0  0  0  0  0  0
   17.6459  -35.4606  -11.4140 C   0  0  0  0  0  0  0  0  0  0  0  0
   18.4039  -36.5050  -10.8712 C   0  0  0  0  0  0  0  0  0  0  0  0
   19.2421  -37.1044  -11.7873 C   0  0  0  0  0  0  0  0  0  0  0  0
   19.0962  -36.3392  -13.3375 S   0  0  0  0  0  0  0  0  0  0  0  0
   20.1389  -38.2327  -11.6052 C   0  0  0  0  0  0  0  0  0  0  0  0
   20.3781  -39.0655  -12.6627 N   0  0  0  0  0  0  0  0  0  0  0  0
   20.7419  -38.4772  -10.5641 O   0  0  0  0  0  0  0  0  0  0  0  0
   21.2835  -40.2288  -12.5290 C   0  0  2  0  0  0  0  0  0  0  0  0
   22.7406  -39.7153  -12.4476 C   0  0  0  0  0  0  0  0  0  0  0  0
   21.0415  -41.1004  -13.7864 C   0  0  0  0  0  0  0  0  0  0  0  0
   19.5825  -41.6141  -13.8097 C   0  0  0  0  0  0  0  0  0  0  0  0
   19.3505  -42.6975  -14.8847 C   0  0  0  0  0  0  0  0  0  0  0  0
   17.9181  -43.2484  -14.8278 C   0  0  0  0  0  0  0  0  0  0  0  0
   17.5968  -43.8073  -13.4362 C   0  0  0  0  0  0  0  0  0  0  0  0
   17.8181  -42.7366  -12.3606 C   0  0  0  0  0  0  0  0  0  0  0  0
   19.2519  -42.1898  -12.4196 C   0  0  0  0  0  0  0  0  0  0  0  0
   23.5872  -40.1706  -11.6828 O   0  0  0  0  0  0  0  0  0  0  0  0
   23.0889  -38.7888  -13.3426 N   0  0  0  0  0  0  0  0  0  0  0  0
   24.4039  -38.1365  -13.4839 C   0  0  1  0  0  0  0  0  0  0  0  0
   24.8349  -37.2138  -12.2973 C   0  0  0  0  0  0  0  0  0  0  0  0
   25.4639  -39.2181  -13.8274 C   0  0  0  0  0  0  0  0  0  0  0  0
   25.1954  -39.9344  -15.1666 C   0  0  0  0  0  0  0  0  0  0  0  0
   26.8941  -38.6467  -13.8520 C   0  0  0  0  0  0  0  0  0  0  0  0
   25.2830  -35.9848  -12.5731 N   0  0  0  0  0  0  0  0  0  0  0  0
   24.7695  -37.5994  -11.1325 O   0  0  0  0  0  0  0  0  0  0  0  0
   25.7205  -35.0111  -11.5770 C   0  0  0  0  0  0  0  0  0  0  0  0
   27.2242  -34.7668  -11.6994 C   0  0  0  0  0  0  0  0  0  0  0  0
   27.9149  -36.0018  -11.5610 O   0  0  0  0  0  0  0  0  0  0  0  0
   28.1718  -36.3347  -10.2063 C   0  0  0  0  0  0  0  0  0  0  0  0
   16.4509  -39.0256  -17.2129 H   0  0  0  0  0  0  0  0  0  0  0  0
   15.3157  -39.1640  -15.1117 H   0  0  0  0  0  0  0  0  0  0  0  0
   15.1168  -37.2273  -13.7247 H   0  0  0  0  0  0  0  0  0  0  0  0
   17.2174  -35.0001  -16.5376 H   0  0  0  0  0  0  0  0  0  0  0  0
   17.0439  -33.3870  -13.1424 H   0  0  0  0  0  0  0  0  0  0  0  0
   17.8639  -33.9997  -14.4147 H   0  0  0  0  0  0  0  0  0  0  0  0
   14.8585  -33.8956  -12.7521 H   0  0  0  0  0  0  0  0  0  0  0  0
   13.9825  -34.7683  -13.8186 H   0  0  0  0  0  0  0  0  0  0  0  0
   14.8375  -35.5253  -12.6514 H   0  0  0  0  0  0  0  0  0  0  0  0
   16.9881  -34.9247  -10.8847 H   0  0  0  0  0  0  0  0  0  0  0  0
   18.3433  -36.7881   -9.9140 H   0  0  0  0  0  0  0  0  0  0  0  0
   19.9342  -38.8859  -13.5406 H   0  0  0  0  0  0  0  0  0  0  0  0
   21.0563  -40.7468  -11.7043 H   0  0  0  0  0  0  0  0  0  0  0  0
   21.6661  -41.8812  -13.7720 H   0  0  0  0  0  0  0  0  0  0  0  0
   21.2117  -40.5526  -14.6055 H   0  0  0  0  0  0  0  0  0  0  0  0
   18.9725  -40.8432  -13.9924 H   0  0  0  0  0  0  0  0  0  0  0  0
   19.9937  -43.4482  -14.7338 H   0  0  0  0  0  0  0  0  0  0  0  0
   19.5097  -42.2985  -15.7878 H   0  0  0  0  0  0  0  0  0  0  0  0
   17.8222  -43.9793  -15.5035 H   0  0  0  0  0  0  0  0  0  0  0  0
   17.2761  -42.5117  -15.0402 H   0  0  0  0  0  0  0  0  0  0  0  0
   18.1929  -44.5883  -13.2500 H   0  0  0  0  0  0  0  0  0  0  0  0
   16.6421  -44.1037  -13.4134 H   0  0  0  0  0  0  0  0  0  0  0  0
   17.6581  -43.1396  -11.4595 H   0  0  0  0  0  0  0  0  0  0  0  0
   17.1748  -41.9855  -12.5088 H   0  0  0  0  0  0  0  0  0  0  0  0
   19.3517  -41.4662  -11.7365 H   0  0  0  0  0  0  0  0  0  0  0  0
   19.8908  -42.9315  -12.2152 H   0  0  0  0  0  0  0  0  0  0  0  0
   22.3801  -38.5056  -13.9887 H   0  0  0  0  0  0  0  0  0  0  0  0
   24.3375  -37.5452  -14.2877 H   0  0  0  0  0  0  0  0  0  0  0  0
   25.4302  -39.9098  -13.1060 H   0  0  0  0  0  0  0  0  0  0  0  0
   25.9095  -40.6154  -15.3293 H   0  0  0  0  0  0  0  0  0  0  0  0
   24.3048  -40.3877  -15.1295 H   0  0  0  0  0  0  0  0  0  0  0  0
   25.1979  -39.2648  -15.9092 H   0  0  0  0  0  0  0  0  0  0  0  0
   27.5406  -39.3759  -14.0765 H   0  0  0  0  0  0  0  0  0  0  0  0
   26.9530  -37.9250  -14.5418 H   0  0  0  0  0  0  0  0  0  0  0  0
   27.1173  -38.2683  -12.9537 H   0  0  0  0  0  0  0  0  0  0  0  0
   25.3214  -35.7118  -13.5344 H   0  0  0  0  0  0  0  0  0  0  0  0
   25.5164  -35.3601  -10.6624 H   0  0  0  0  0  0  0  0  0  0  0  0
   25.2335  -34.1497  -11.7214 H   0  0  0  0  0  0  0  0  0  0  0  0
   27.5196  -34.1368  -10.9812 H   0  0  0  0  0  0  0  0  0  0  0  0
   27.4260  -34.3698  -12.5948 H   0  0  0  0  0  0  0  0  0  0  0  0
   28.6573  -37.2079  -10.1640 H   0  0  0  0  0  0  0  0  0  0  0  0
   28.7333  -35.6205   -9.7882 H   0  0  0  0  0  0  0  0  0  0  0  0
   27.3061  -36.4103   -9.7117 H   0  0  0  0  0  0  0  0  0  0  0  0
  1  2  2  0  0  0  0
  1  6  1  0  0  0  0
  1 41  1  0  0  0  0
  2  3  1  0  0  0  0
  2 42  1  0  0  0  0
  3  4  2  0  0  0  0
  3 43  1  0  0  0  0
  4  5  1  0  0  0  0
  4  8  1  0  0  0  0
  5  6  2  0  0  0  0
  5 44  1  0  0  0  0
  6  7  1  0  0  0  0
  8  9  1  0  0  0  0
  8 10  1  0  0  0  0
  9 11  1  0  0  0  0
  9 45  1  0  0  0  0
  9 46  1  0  0  0  0
 10 47  1  0  0  0  0
 10 48  1  0  0  0  0
 10 49  1  0  0  0  0
 11 12  2  0  0  0  0
 11 15  1  0  0  0  0
 12 13  1  0  0  0  0
 12 50  1  0  0  0  0
 13 14  2  0  0  0  0
 13 51  1  0  0  0  0
 14 15  1  0  0  0  0
 14 16  1  0  0  0  0
 16 17  1  0  0  0  0
 16 18  2  0  0  0  0
 17 19  1  0  0  0  0
 17 52  1  0  0  0  0
 19 20  1  0  0  0  0
 19 21  1  0  0  0  0
 19 53  1  0  0  0  0
 20 28  2  0  0  0  0
 20 29  1  0  0  0  0
 21 22  1  0  0  0  0
 21 54  1  0  0  0  0
 21 55  1  0  0  0  0
 22 23  1  0  0  0  0
 22 27  1  0  0  0  0
 22 56  1  0  0  0  0
 23 24  1  0  0  0  0
 23 57  1  0  0  0  0
 23 58  1  0  0  0  0
 24 25  1  0  0  0  0
 24 59  1  0  0  0  0
 24 60  1  0  0  0  0
 25 26  1  0  0  0  0
 25 61  1  0  0  0  0
 25 62  1  0  0  0  0
 26 27  1  0  0  0  0
 26 63  1  0  0  0  0
 26 64  1  0  0  0  0
 27 65  1  0  0  0  0
 27 66  1  0  0  0  0
 29 30  1  0  0  0  0
 29 67  1  0  0  0  0
 30 31  1  0  0  0  0
 30 32  1  0  0  0  0
 30 68  1  0  0  0  0
 31 35  1  0  0  0  0
 31 36  2  0  0  0  0
 32 33  1  0  0  0  0
 32 34  1  0  0  0  0
 32 69  1  0  0  0  0
 33 70  1  0  0  0  0
 33 71  1  0  0  0  0
 33 72  1  0  0  0  0
 34 73  1  0  0  0  0
 34 74  1  0  0  0  0
 34 75  1  0  0  0  0
 35 37  1  0  0  0  0
 35 76  1  0  0  0  0
 37 38  1  0  0  0  0
 37 77  1  0  0  0  0
 37 78  1  0  0  0  0
 38 39  1  0  0  0  0
 38 79  1  0  0  0  0
 38 80  1  0  0  0  0
 39 40  1  0  0  0  0
 40 81  1  0  0  0  0
 40 82  1  0  0  0  0
 40 83  1  0  0  0  0
M  END
> <BIOSOLVEIT.HYDE_ESTIMATED_AFFINITY_LOWER_BOUNDARY [nM]>
70178735.405606

> <BIOSOLVEIT.HYDE_ESTIMATED_AFFINITY_UPPER_BOUNDARY [nM]>
6972672292.068734

> <BIOSOLVEIT.HYDE_LIGAND_EFFICIENCY range: ++, +, 0, -, -->
--

> <BIOSOLVEIT.HYDE_LIGAND_LIPOPHILIC_EFFICIENCY range: ++, +, 0, -, -->
--

> <BIOSOLVEIT.INTER_CLASH range: red, yellow, green>
green

> <BIOSOLVEIT.INTRA_CLASH range: red, yellow, green>
green

> <BIOSOLVEIT.LOGP>
5.0101

> <BIOSOLVEIT.MOLECULAR WEIGHT>
591.212

> <BIOSOLVEIT.MOLECULE_CHECKSUM>
LTAuODg1ODY5OzAuMDIyMTQ2Nw==

> <BIOSOLVEIT.TORSION_QUALITY range: red, yellow, green, not rotatable>
red

> <BIOSOLVEIT.TPSA>
99.77

$$$$
G11.sdf
b8Hydescor01032215413D 1   1.00000     0.00000     0
Hydescorer 1.1.2 b8048283
 83 85  0  0  0  0            999 V2000
   16.1712  -37.9639  -16.5835 C   0  0  0  0  0  0  0  0  0  0  0  0
   15.5076  -37.9465  -15.3604 C   0  0  0  0  0  0  0  0  0  0  0  0
   15.5436  -36.8083  -14.5596 C   0  0  0  0  0  0  0  0  0  0  0  0
   16.2464  -35.6751  -14.9852 C   0  0  0  0  0  0  0  0  0  0  0  0
   16.9247  -35.6922  -16.2085 C   0  0  0  0  0  0  0  0  0  0  0  0
   16.8804  -36.8352  -17.0022 C   0  0  0  0  0  0  0  0  0  0  0  0
   17.7042  -36.8595  -18.5264 Cl  0  0  0  0  0  0  0  0  0  0  0  0
   16.2546  -34.5302  -14.1518 N   0  0  0  0  0  0  0  0  0  0  0  0
   17.5555  -34.1863  -13.5201 C   0  0  0  0  0  0  0  0  0  0  0  0
   15.0501  -34.2235  -13.3511 C   0  0  0  0  0  0  0  0  0  0  0  0
   18.0212  -35.4060  -12.7432 C   0  0  0  0  0  0  0  0  0  0  0  0
   17.7138  -35.7417  -11.4501 C   0  0  0  0  0  0  0  0  0  0  0  0
   18.2935  -36.9487  -11.0416 C   0  0  0  0  0  0  0  0  0  0  0  0
   19.0498  -37.5512  -12.0247 C   0  0  0  0  0  0  0  0  0  0  0  0
   19.0531  -36.5867  -13.4668 S   0  0  0  0  0  0  0  0  0  0  0  0
   19.7613  -38.8171  -11.9846 C   0  0  0  0  0  0  0  0  0  0  0  0
   19.7405  -39.6234  -13.0884 N   0  0  0  0  0  0  0  0  0  0  0  0
   20.4267  -39.2076  -11.0296 O   0  0  0  0  0  0  0  0  0  0  0  0
   20.4494  -40.9227  -13.0984 C   0  0  2  0  0  0  0  0  0  0  0  0
   21.9139  -40.6843  -13.5361 C   0  0  0  0  0  0  0  0  0  0  0  0
   19.6792  -41.8176  -14.1010 C   0  0  0  0  0  0  0  0  0  0  0  0
   18.1673  -41.8111  -13.7733 C   0  0  0  0  0  0  0  0  0  0  0  0
   17.3398  -42.6546  -14.7667 C   0  0  0  0  0  0  0  0  0  0  0  0
   15.8574  -42.6991  -14.3678 C   0  0  0  0  0  0  0  0  0  0  0  0
   15.6854  -43.2406  -12.9433 C   0  0  0  0  0  0  0  0  0  0  0  0
   16.4989  -42.4055  -11.9467 C   0  0  0  0  0  0  0  0  0  0  0  0
   17.9807  -42.3652  -12.3480 C   0  0  0  0  0  0  0  0  0  0  0  0
   22.8881  -41.1721  -12.9688 O   0  0  0  0  0  0  0  0  0  0  0  0
   22.0861  -39.9812  -14.6573 N   0  0  0  0  0  0  0  0  0  0  0  0
   23.3660  -39.6143  -15.2911 C   0  0  1  0  0  0  0  0  0  0  0  0
   24.0156  -40.7129  -16.1946 C   0  0  0  0  0  0  0  0  0  0  0  0
   23.1909  -38.2545  -16.0203 C   0  0  0  0  0  0  0  0  0  0  0  0
   24.5198  -37.5052  -16.2457 C   0  0  0  0  0  0  0  0  0  0  0  0
   22.4746  -38.4069  -17.3755 C   0  0  0  0  0  0  0  0  0  0  0  0
   23.2132  -41.5284  -16.8865 N   0  0  0  0  0  0  0  0  0  0  0  0
   25.2355  -40.8351  -16.2738 O   0  0  0  0  0  0  0  0  0  0  0  0
   23.6686  -42.5984  -17.7694 C   0  0  0  0  0  0  0  0  0  0  0  0
   22.5019  -43.1328  -18.5996 C   0  0  0  0  0  0  0  0  0  0  0  0
   22.9372  -44.2548  -19.3565 O   0  0  0  0  0  0  0  0  0  0  0  0
   21.9450  -44.7258  -20.2542 C   0  0  0  0  0  0  0  0  0  0  0  0
   16.1407  -38.7805  -17.1601 H   0  0  0  0  0  0  0  0  0  0  0  0
   15.0030  -38.7543  -15.0558 H   0  0  0  0  0  0  0  0  0  0  0  0
   15.0674  -36.8004  -13.6803 H   0  0  0  0  0  0  0  0  0  0  0  0
   17.4378  -34.8889  -16.5109 H   0  0  0  0  0  0  0  0  0  0  0  0
   17.4398  -33.4102  -12.9003 H   0  0  0  0  0  0  0  0  0  0  0  0
   18.2263  -33.9533  -14.2244 H   0  0  0  0  0  0  0  0  0  0  0  0
   15.2069  -33.3921  -12.8181 H   0  0  0  0  0  0  0  0  0  0  0  0
   14.2701  -34.0858  -13.9616 H   0  0  0  0  0  0  0  0  0  0  0  0
   14.8585  -34.9851  -12.7321 H   0  0  0  0  0  0  0  0  0  0  0  0
   17.1342  -35.1812  -10.8585 H   0  0  0  0  0  0  0  0  0  0  0  0
   18.1713  -37.3355  -10.1276 H   0  0  0  0  0  0  0  0  0  0  0  0
   19.2383  -39.3306  -13.9021 H   0  0  0  0  0  0  0  0  0  0  0  0
   20.4268  -41.3323  -12.1864 H   0  0  0  0  0  0  0  0  0  0  0  0
   20.0257  -42.7537  -14.0417 H   0  0  0  0  0  0  0  0  0  0  0  0
   19.8174  -41.4692  -15.0281 H   0  0  0  0  0  0  0  0  0  0  0  0
   17.8364  -40.8678  -13.7980 H   0  0  0  0  0  0  0  0  0  0  0  0
   17.7007  -43.5871  -14.7807 H   0  0  0  0  0  0  0  0  0  0  0  0
   17.4190  -42.2527  -15.6790 H   0  0  0  0  0  0  0  0  0  0  0  0
   15.3655  -43.2928  -15.0046 H   0  0  0  0  0  0  0  0  0  0  0  0
   15.4789  -41.7746  -14.4138 H   0  0  0  0  0  0  0  0  0  0  0  0
   16.0009  -44.1890  -12.9118 H   0  0  0  0  0  0  0  0  0  0  0  0
   14.7184  -43.2025  -12.6916 H   0  0  0  0  0  0  0  0  0  0  0  0
   16.4171  -42.8107  -11.0362 H   0  0  0  0  0  0  0  0  0  0  0  0
   16.1386  -41.4728  -11.9301 H   0  0  0  0  0  0  0  0  0  0  0  0
   18.4752  -41.7802  -11.7051 H   0  0  0  0  0  0  0  0  0  0  0  0
   18.3528  -43.2925  -12.3090 H   0  0  0  0  0  0  0  0  0  0  0  0
   21.2556  -39.6688  -15.1184 H   0  0  0  0  0  0  0  0  0  0  0  0
   24.0104  -39.4498  -14.5443 H   0  0  0  0  0  0  0  0  0  0  0  0
   22.6159  -37.6763  -15.4413 H   0  0  0  0  0  0  0  0  0  0  0  0
   24.3398  -36.6419  -16.7172 H   0  0  0  0  0  0  0  0  0  0  0  0
   24.9515  -37.3193  -15.3630 H   0  0  0  0  0  0  0  0  0  0  0  0
   25.1297  -38.0686  -16.8030 H   0  0  0  0  0  0  0  0  0  0  0  0
   22.3842  -37.5096  -17.8075 H   0  0  0  0  0  0  0  0  0  0  0  0
   23.0080  -39.0102  -17.9685 H   0  0  0  0  0  0  0  0  0  0  0  0
   21.5666  -38.7999  -17.2303 H   0  0  0  0  0  0  0  0  0  0  0  0
   22.2266  -41.3954  -16.7921 H   0  0  0  0  0  0  0  0  0  0  0  0
   24.0492  -43.3412  -17.2186 H   0  0  0  0  0  0  0  0  0  0  0  0
   24.3741  -42.2427  -18.3824 H   0  0  0  0  0  0  0  0  0  0  0  0
   22.1778  -42.4178  -19.2191 H   0  0  0  0  0  0  0  0  0  0  0  0
   21.7580  -43.4090  -17.9911 H   0  0  0  0  0  0  0  0  0  0  0  0
   22.2995  -45.5121  -20.7601 H   0  0  0  0  0  0  0  0  0  0  0  0
   21.1326  -44.9994  -19.7393 H   0  0  0  0  0  0  0  0  0  0  0  0
   21.7034  -43.9978  -20.8959 H   0  0  0  0  0  0  0  0  0  0  0  0
  1  2  2  0  0  0  0
  1  6  1  0  0  0  0
  1 41  1  0  0  0  0
  2  3  1  0  0  0  0
  2 42  1  0  0  0  0
  3  4  2  0  0  0  0
  3 43  1  0  0  0  0
  4  5  1  0  0  0  0
  4  8  1  0  0  0  0
  5  6  2  0  0  0  0
  5 44  1  0  0  0  0
  6  7  1  0  0  0  0
  8  9  1  0  0  0  0
  8 10  1  0  0  0  0
  9 11  1  0  0  0  0
  9 45  1  0  0  0  0
  9 46  1  0  0  0  0
 10 47  1  0  0  0  0
 10 48  1  0  0  0  0
 10 49  1  0  0  0  0
 11 12  2  0  0  0  0
 11 15  1  0  0  0  0
 12 13  1  0  0  0  0
 12 50  1  0  0  0  0
 13 14  2  0  0  0  0
 13 51  1  0  0  0  0
 14 15  1  0  0  0  0
 14 16  1  0  0  0  0
 16 17  1  0  0  0  0
 16 18  2  0  0  0  0
 17 19  1  0  0  0  0
 17 52  1  0  0  0  0
 19 20  1  0  0  0  0
 19 21  1  0  0  0  0
 19 53  1  0  0  0  0
 20 28  2  0  0  0  0
 20 29  1  0  0  0  0
 21 22  1  0  0  0  0
 21 54  1  0  0  0  0
 21 55  1  0  0  0  0
 22 23  1  0  0  0  0
 22 27  1  0  0  0  0
 22 56  1  0  0  0  0
 23 24  1  0  0  0  0
 23 57  1  0  0  0  0
 23 58  1  0  0  0  0
 24 25  1  0  0  0  0
 24 59  1  0  0  0  0
 24 60  1  0  0  0  0
 25 26  1  0  0  0  0
 25 61  1  0  0  0  0
 25 62  1  0  0  0  0
 26 27  1  0  0  0  0
 26 63  1  0  0  0  0
 26 64  1  0  0  0  0
 27 65  1  0  0  0  0
 27 66  1  0  0  0  0
 29 30  1  0  0  0  0
 29 67  1  0  0  0  0
 30 31  1  0  0  0  0
 30 32  1  0  0  0  0
 30 68  1  0  0  0  0
 31 35  1  0  0  0  0
 31 36  2  0  0  0  0
 32 33  1  0  0  0  0
 32 34  1  0  0  0  0
 32 69  1  0  0  0  0
 33 70  1  0  0  0  0
 33 71  1  0  0  0  0
 33 72  1  0  0  0  0
 34 73  1  0  0  0  0
 34 74  1  0  0  0  0
 34 75  1  0  0  0  0
 35 37  1  0  0  0  0
 35 76  1  0  0  0  0
 37 38  1  0  0  0  0
 37 77  1  0  0  0  0
 37 78  1  0  0  0  0
 38 39  1  0  0  0  0
 38 79  1  0  0  0  0
 38 80  1  0  0  0  0
 39 40  1  0  0  0  0
 40 81  1  0  0  0  0
 40 82  1  0  0  0  0
 40 83  1  0  0  0  0
M  END
> <BIOSOLVEIT.HYDE_ESTIMATED_AFFINITY_LOWER_BOUNDARY [nM]>
1087419.174401

> <BIOSOLVEIT.HYDE_ESTIMATED_AFFINITY_UPPER_BOUNDARY [nM]>
108041524.307686

> <BIOSOLVEIT.HYDE_LIGAND_EFFICIENCY range: ++, +, 0, -, -->
--

> <BIOSOLVEIT.HYDE_LIGAND_LIPOPHILIC_EFFICIENCY range: ++, +, 0, -, -->
--

> <BIOSOLVEIT.INTER_CLASH range: red, yellow, green>
green

> <BIOSOLVEIT.INTRA_CLASH range: red, yellow, green>
green

> <BIOSOLVEIT.LOGP>
5.0101

> <BIOSOLVEIT.MOLECULAR WEIGHT>
591.212

> <BIOSOLVEIT.MOLECULE_CHECKSUM>
LTExLjIxNjM7MC4yODA0MDc=

> <BIOSOLVEIT.TORSION_QUALITY range: red, yellow, green, not rotatable>
yellow

> <BIOSOLVEIT.TPSA>
99.77

$$$$
Z1203922336.****
b8Hydescor01032215413D 1   1.00000     0.00000     0
Hydescorer 1.1.2 b8048283
 41 42  0  0  0  0            999 V2000
   17.4623  -40.2394  -12.8803 C   0  0  0  0  0  0  0  0  0  0  0  0
   18.4105  -39.2699  -12.5659 C   0  0  0  0  0  0  0  0  0  0  0  0
   18.0398  -38.1009  -11.8999 C   0  0  0  0  0  0  0  0  0  0  0  0
   16.6905  -37.9249  -11.5517 C   0  0  0  0  0  0  0  0  0  0  0  0
   15.7336  -38.8933  -11.8579 C   0  0  0  0  0  0  0  0  0  0  0  0
   16.1256  -40.0501  -12.5256 C   0  0  0  0  0  0  0  0  0  0  0  0
   14.9549  -41.2665  -12.9144 Cl  0  0  0  0  0  0  0  0  0  0  0  0
   19.0939  -37.0564  -11.5751 C   0  0  0  0  0  0  0  0  0  0  0  0
   16.3291  -36.7473  -10.8470 N   0  0  0  0  0  0  0  0  0  0  0  0
   15.8383  -35.5792  -11.3725 C   0  0  0  0  0  0  0  0  0  0  0  0
   15.5339  -34.4679  -10.3692 C   0  0  1  0  0  0  0  0  0  0  0  0
   15.7147  -35.4440  -12.5728 O   0  0  0  0  0  0  0  0  0  0  0  0
   15.1807  -33.1961  -11.1893 C   0  0  0  0  0  0  0  0  0  0  0  0
   14.3245  -34.8991   -9.5018 C   0  0  0  0  0  0  0  0  0  0  0  0
   16.2632  -32.1117  -11.0125 C   0  0  0  0  0  0  0  0  0  0  0  0
   16.0054  -30.8022  -11.7642 C   0  0  0  0  0  0  0  0  0  0  0  0
   16.8524  -29.7541  -11.0347 C   0  0  0  0  0  0  0  0  0  0  0  0
   17.1632  -30.3455   -9.6548 C   0  0  0  0  0  0  0  0  0  0  0  0
   16.3308  -31.6233   -9.5658 C   0  0  0  0  0  0  0  0  0  0  0  0
   17.7390  -41.0719  -13.3604 H   0  0  0  0  0  0  0  0  0  0  0  0
   19.3671  -39.4125  -12.8199 H   0  0  0  0  0  0  0  0  0  0  0  0
   14.7768  -38.7578  -11.6005 H   0  0  0  0  0  0  0  0  0  0  0  0
   18.6660  -36.2871  -11.1009 H   0  0  0  0  0  0  0  0  0  0  0  0
   19.7949  -37.4616  -10.9881 H   0  0  0  0  0  0  0  0  0  0  0  0
   19.5150  -36.7331  -12.4226 H   0  0  0  0  0  0  0  0  0  0  0  0
   16.4457  -36.7720   -9.8541 H   0  0  0  0  0  0  0  0  0  0  0  0
   16.3311  -34.2962   -9.7905 H   0  0  0  0  0  0  0  0  0  0  0  0
   14.3022  -32.8367  -10.8746 H   0  0  0  0  0  0  0  0  0  0  0  0
   15.1142  -33.4382  -12.1572 H   0  0  0  0  0  0  0  0  0  0  0  0
   14.1151  -34.1790   -8.8403 H   0  0  0  0  0  0  0  0  0  0  0  0
   13.5304  -35.0526  -10.0898 H   0  0  0  0  0  0  0  0  0  0  0  0
   14.5475  -35.7440   -9.0154 H   0  0  0  0  0  0  0  0  0  0  0  0
   17.1526  -32.4812  -11.2816 H   0  0  0  0  0  0  0  0  0  0  0  0
   15.0361  -30.5598  -11.7257 H   0  0  0  0  0  0  0  0  0  0  0  0
   16.2913  -30.8828  -12.7190 H   0  0  0  0  0  0  0  0  0  0  0  0
   16.3413  -28.8999  -10.9392 H   0  0  0  0  0  0  0  0  0  0  0  0
   17.6996  -29.5812  -11.5372 H   0  0  0  0  0  0  0  0  0  0  0  0
   16.9007  -29.7057   -8.9325 H   0  0  0  0  0  0  0  0  0  0  0  0
   18.1375  -30.5562   -9.5755 H   0  0  0  0  0  0  0  0  0  0  0  0
   16.7779  -32.3004   -8.9812 H   0  0  0  0  0  0  0  0  0  0  0  0
   15.4160  -31.4293   -9.2116 H   0  0  0  0  0  0  0  0  0  0  0  0
  1  2  2  0  0  0  0
  1  6  1  0  0  0  0
  1 20  1  0  0  0  0
  2  3  1  0  0  0  0
  2 21  1  0  0  0  0
  3  4  2  0  0  0  0
  3  8  1  0  0  0  0
  4  5  1  0  0  0  0
  4  9  1  0  0  0  0
  5  6  2  0  0  0  0
  5 22  1  0  0  0  0
  6  7  1  0  0  0  0
  8 23  1  0  0  0  0
  8 24  1  0  0  0  0
  8 25  1  0  0  0  0
  9 10  1  0  0  0  0
  9 26  1  0  0  0  0
 10 11  1  0  0  0  0
 10 12  2  0  0  0  0
 11 13  1  0  0  0  0
 11 14  1  0  0  0  0
 11 27  1  0  0  0  0
 13 15  1  0  0  0  0
 13 28  1  0  0  0  0
 13 29  1  0  0  0  0
 14 30  1  0  0  0  0
 14 31  1  0  0  0  0
 14 32  1  0  0  0  0
 15 16  1  0  0  0  0
 15 19  1  0  0  0  0
 15 33  1  0  0  0  0
 16 17  1  0  0  0  0
 16 34  1  0  0  0  0
 16 35  1  0  0  0  0
 17 18  1  0  0  0  0
 17 36  1  0  0  0  0
 17 37  1  0  0  0  0
 18 19  1  0  0  0  0
 18 38  1  0  0  0  0
 18 39  1  0  0  0  0
 19 40  1  0  0  0  0
 19 41  1  0  0  0  0
M  END
> <BIOSOLVEIT.HYDE_ESTIMATED_AFFINITY_LOWER_BOUNDARY [nM]>
29288.494080

> <BIOSOLVEIT.HYDE_ESTIMATED_AFFINITY_UPPER_BOUNDARY [nM]>
2909985.054178

> <BIOSOLVEIT.HYDE_LIGAND_EFFICIENCY range: ++, +, 0, -, -->
-

> <BIOSOLVEIT.HYDE_LIGAND_LIPOPHILIC_EFFICIENCY range: ++, +, 0, -, -->
--

> <BIOSOLVEIT.INTER_CLASH range: red, yellow, green>
green

> <BIOSOLVEIT.INTRA_CLASH range: red, yellow, green>
green

> <BIOSOLVEIT.LOGP>
4.80332

> <BIOSOLVEIT.MOLECULAR WEIGHT>
279.809

> <BIOSOLVEIT.MOLECULE_CHECKSUM>
LTIwLjE3NjE7MS4wNjE5

> <BIOSOLVEIT.TORSION_QUALITY range: red, yellow, green, not rotatable>
red

> <BIOSOLVEIT.TPSA>
29.1

$$$$
Z1203922336.****
b8Hydescor01032215413D 1   1.00000     0.00000     0
Hydescorer 1.1.2 b8048283
 41 42  0  0  0  0            999 V2000
   16.3723  -38.1666  -15.8440 C   0  0  0  0  0  0  0  0  0  0  0  0
   16.1363  -38.8609  -14.6607 C   0  0  0  0  0  0  0  0  0  0  0  0
   15.9767  -38.1780  -13.4543 C   0  0  0  0  0  0  0  0  0  0  0  0
   16.0570  -36.7757  -13.4599 C   0  0  0  0  0  0  0  0  0  0  0  0
   16.2880  -36.0707  -14.6418 C   0  0  0  0  0  0  0  0  0  0  0  0
   16.4474  -36.7727  -15.8332 C   0  0  0  0  0  0  0  0  0  0  0  0
   16.7334  -35.9179  -17.3126 Cl  0  0  0  0  0  0  0  0  0  0  0  0
   15.7270  -38.9611  -12.1767 C   0  0  0  0  0  0  0  0  0  0  0  0
   15.8621  -36.0890  -12.2335 N   0  0  0  0  0  0  0  0  0  0  0  0
   16.8228  -35.5306  -11.4292 C   0  0  0  0  0  0  0  0  0  0  0  0
   16.3201  -34.8487  -10.1579 C   0  0  1  0  0  0  0  0  0  0  0  0
   18.0002  -35.6345  -11.7075 O   0  0  0  0  0  0  0  0  0  0  0  0
   15.4071  -33.6720  -10.6008 C   0  0  0  0  0  0  0  0  0  0  0  0
   15.5067  -35.8762   -9.3313 C   0  0  0  0  0  0  0  0  0  0  0  0
   16.2284  -32.3789  -10.7820 C   0  0  0  0  0  0  0  0  0  0  0  0
   15.5078  -31.2447  -11.5172 C   0  0  0  0  0  0  0  0  0  0  0  0
   16.2501  -29.9700  -11.1021 C   0  0  0  0  0  0  0  0  0  0  0  0
   17.0129  -30.3220   -9.8197 C   0  0  0  0  0  0  0  0  0  0  0  0
   16.5360  -31.7218   -9.4369 C   0  0  0  0  0  0  0  0  0  0  0  0
   16.4883  -38.6666  -16.7022 H   0  0  0  0  0  0  0  0  0  0  0  0
   16.0804  -39.8591  -14.6753 H   0  0  0  0  0  0  0  0  0  0  0  0
   16.3386  -35.0720  -14.6330 H   0  0  0  0  0  0  0  0  0  0  0  0
   15.6362  -38.3266  -11.4092 H   0  0  0  0  0  0  0  0  0  0  0  0
   14.8854  -39.4930  -12.2708 H   0  0  0  0  0  0  0  0  0  0  0  0
   16.4950  -39.5793  -12.0090 H   0  0  0  0  0  0  0  0  0  0  0  0
   14.9165  -36.0023  -11.9197 H   0  0  0  0  0  0  0  0  0  0  0  0
   17.0911  -34.5055   -9.6213 H   0  0  0  0  0  0  0  0  0  0  0  0
   14.7065  -33.5203   -9.9035 H   0  0  0  0  0  0  0  0  0  0  0  0
   14.9686  -33.9061  -11.4685 H   0  0  0  0  0  0  0  0  0  0  0  0
   15.1718  -35.4413   -8.4954 H   0  0  0  0  0  0  0  0  0  0  0  0
   14.7306  -36.1999   -9.8725 H   0  0  0  0  0  0  0  0  0  0  0  0
   16.0926  -36.6506   -9.0924 H   0  0  0  0  0  0  0  0  0  0  0  0
   17.0846  -32.5909  -11.2532 H   0  0  0  0  0  0  0  0  0  0  0  0
   14.5483  -31.1992  -11.2393 H   0  0  0  0  0  0  0  0  0  0  0  0
   15.5623  -31.3768  -12.5070 H   0  0  0  0  0  0  0  0  0  0  0  0
   15.5997  -29.2307  -10.9274 H   0  0  0  0  0  0  0  0  0  0  0  0
   16.8878  -29.6902  -11.8198 H   0  0  0  0  0  0  0  0  0  0  0  0
   16.7981  -29.6684   -9.0941 H   0  0  0  0  0  0  0  0  0  0  0  0
   17.9987  -30.3217   -9.9876 H   0  0  0  0  0  0  0  0  0  0  0  0
   17.2524  -32.2223   -8.9508 H   0  0  0  0  0  0  0  0  0  0  0  0
   15.7159  -31.6758   -8.8665 H   0  0  0  0  0  0  0  0  0  0  0  0
  1  2  2  0  0  0  0
  1  6  1  0  0  0  0
  1 20  1  0  0  0  0
  2  3  1  0  0  0  0
  2 21  1  0  0  0  0
  3  4  2  0  0  0  0
  3  8  1  0  0  0  0
  4  5  1  0  0  0  0
  4  9  1  0  0  0  0
  5  6  2  0  0  0  0
  5 22  1  0  0  0  0
  6  7  1  0  0  0  0
  8 23  1  0  0  0  0
  8 24  1  0  0  0  0
  8 25  1  0  0  0  0
  9 10  1  0  0  0  0
  9 26  1  0  0  0  0
 10 11  1  0  0  0  0
 10 12  2  0  0  0  0
 11 13  1  0  0  0  0
 11 14  1  0  0  0  0
 11 27  1  0  0  0  0
 13 15  1  0  0  0  0
 13 28  1  0  0  0  0
 13 29  1  0  0  0  0
 14 30  1  0  0  0  0
 14 31  1  0  0  0  0
 14 32  1  0  0  0  0
 15 16  1  0  0  0  0
 15 19  1  0  0  0  0
 15 33  1  0  0  0  0
 16 17  1  0  0  0  0
 16 34  1  0  0  0  0
 16 35  1  0  0  0  0
 17 18  1  0  0  0  0
 17 36  1  0  0  0  0
 17 37  1  0  0  0  0
 18 19  1  0  0  0  0
 18 38  1  0  0  0  0
 18 39  1  0  0  0  0
 19 40  1  0  0  0  0
 19 41  1  0  0  0  0
M  END
> <BIOSOLVEIT.HYDE_ESTIMATED_AFFINITY_LOWER_BOUNDARY [nM]>
19732861.255766

> <BIOSOLVEIT.HYDE_ESTIMATED_AFFINITY_UPPER_BOUNDARY [nM]>
1960576435.669496

> <BIOSOLVEIT.HYDE_LIGAND_EFFICIENCY range: ++, +, 0, -, -->
--

> <BIOSOLVEIT.HYDE_LIGAND_LIPOPHILIC_EFFICIENCY range: ++, +, 0, -, -->
--

> <BIOSOLVEIT.INTER_CLASH range: red, yellow, green>
green

> <BIOSOLVEIT.INTRA_CLASH range: red, yellow, green>
green

> <BIOSOLVEIT.LOGP>
4.80332

> <BIOSOLVEIT.MOLECULAR WEIGHT>
279.809

> <BIOSOLVEIT.MOLECULE_CHECKSUM>
LTQuMDMxMDc7MC4yMTIxNjI=

> <BIOSOLVEIT.TORSION_QUALITY range: red, yellow, green, not rotatable>
yellow

> <BIOSOLVEIT.TPSA>
29.1

$$$$
Z1203922336.****
b8Hydescor01032215413D 1   1.00000     0.00000     0
Hydescorer 1.1.2 b8048283
 41 42  0  0  0  0            999 V2000
   16.9615  -42.6826  -12.3020 C   0  0  0  0  0  0  0  0  0  0  0  0
   15.5905  -42.6852  -12.0606 C   0  0  0  0  0  0  0  0  0  0  0  0
   14.8745  -41.4886  -12.0077 C   0  0  0  0  0  0  0  0  0  0  0  0
   15.5661  -40.2822  -12.2055 C   0  0  0  0  0  0  0  0  0  0  0  0
   16.9393  -40.2697  -12.4533 C   0  0  0  0  0  0  0  0  0  0  0  0
   17.6338  -41.4751  -12.4985 C   0  0  0  0  0  0  0  0  0  0  0  0
   19.3386  -41.4833  -12.8064 Cl  0  0  0  0  0  0  0  0  0  0  0  0
   13.3803  -41.5202  -11.7357 C   0  0  0  0  0  0  0  0  0  0  0  0
   14.8236  -39.0731  -12.1808 N   0  0  0  0  0  0  0  0  0  0  0  0
   14.2311  -38.4374  -13.2422 C   0  0  0  0  0  0  0  0  0  0  0  0
   13.4905  -37.1407  -12.9194 C   0  0  1  0  0  0  0  0  0  0  0  0
   14.3505  -38.8723  -14.3697 O   0  0  0  0  0  0  0  0  0  0  0  0
   14.3037  -35.9795  -13.5556 C   0  0  0  0  0  0  0  0  0  0  0  0
   12.0744  -37.2085  -13.5443 C   0  0  0  0  0  0  0  0  0  0  0  0
   14.0963  -34.6693  -12.7684 C   0  0  0  0  0  0  0  0  0  0  0  0
   14.5588  -34.7037  -11.3085 C   0  0  0  0  0  0  0  0  0  0  0  0
   14.7685  -33.2350  -10.9253 C   0  0  0  0  0  0  0  0  0  0  0  0
   14.9025  -32.4672  -12.2455 C   0  0  0  0  0  0  0  0  0  0  0  0
   14.9563  -33.5388  -13.3329 C   0  0  0  0  0  0  0  0  0  0  0  0
   17.4649  -43.5460  -12.3347 H   0  0  0  0  0  0  0  0  0  0  0  0
   15.1138  -43.5535  -11.9237 H   0  0  0  0  0  0  0  0  0  0  0  0
   17.4191  -39.4042  -12.5968 H   0  0  0  0  0  0  0  0  0  0  0  0
   13.0225  -40.5864  -11.7307 H   0  0  0  0  0  0  0  0  0  0  0  0
   12.9225  -42.0488  -12.4505 H   0  0  0  0  0  0  0  0  0  0  0  0
   13.2123  -41.9463  -10.8467 H   0  0  0  0  0  0  0  0  0  0  0  0
   14.7206  -38.6346  -11.2881 H   0  0  0  0  0  0  0  0  0  0  0  0
   13.4262  -37.0163  -11.9292 H   0  0  0  0  0  0  0  0  0  0  0  0
   14.0012  -35.8462  -14.4994 H   0  0  0  0  0  0  0  0  0  0  0  0
   15.2752  -36.2166  -13.5473 H   0  0  0  0  0  0  0  0  0  0  0  0
   11.5791  -36.3643  -13.3396 H   0  0  0  0  0  0  0  0  0  0  0  0
   12.1523  -37.3175  -14.5353 H   0  0  0  0  0  0  0  0  0  0  0  0
   11.5780  -37.9875  -13.1613 H   0  0  0  0  0  0  0  0  0  0  0  0
   13.1323  -34.4061  -12.8067 H   0  0  0  0  0  0  0  0  0  0  0  0
   15.4139  -35.2151  -11.2225 H   0  0  0  0  0  0  0  0  0  0  0  0
   13.8603  -35.1223  -10.7282 H   0  0  0  0  0  0  0  0  0  0  0  0
   15.6000  -33.1340  -10.3790 H   0  0  0  0  0  0  0  0  0  0  0  0
   13.9846  -32.8966  -10.4049 H   0  0  0  0  0  0  0  0  0  0  0  0
   15.7407  -31.9218  -12.2498 H   0  0  0  0  0  0  0  0  0  0  0  0
   14.1141  -31.8677  -12.3834 H   0  0  0  0  0  0  0  0  0  0  0  0
   14.5754  -33.1954  -14.1913 H   0  0  0  0  0  0  0  0  0  0  0  0
   15.8956  -33.8466  -13.4844 H   0  0  0  0  0  0  0  0  0  0  0  0
  1  2  2  0  0  0  0
  1  6  1  0  0  0  0
  1 20  1  0  0  0  0
  2  3  1  0  0  0  0
  2 21  1  0  0  0  0
  3  4  2  0  0  0  0
  3  8  1  0  0  0  0
  4  5  1  0  0  0  0
  4  9  1  0  0  0  0
  5  6  2  0  0  0  0
  5 22  1  0  0  0  0
  6  7  1  0  0  0  0
  8 23  1  0  0  0  0
  8 24  1  0  0  0  0
  8 25  1  0  0  0  0
  9 10  1  0  0  0  0
  9 26  1  0  0  0  0
 10 11  1  0  0  0  0
 10 12  2  0  0  0  0
 11 13  1  0  0  0  0
 11 14  1  0  0  0  0
 11 27  1  0  0  0  0
 13 15  1  0  0  0  0
 13 28  1  0  0  0  0
 13 29  1  0  0  0  0
 14 30  1  0  0  0  0
 14 31  1  0  0  0  0
 14 32  1  0  0  0  0
 15 16  1  0  0  0  0
 15 19  1  0  0  0  0
 15 33  1  0  0  0  0
 16 17  1  0  0  0  0
 16 34  1  0  0  0  0
 16 35  1  0  0  0  0
 17 18  1  0  0  0  0
 17 36  1  0  0  0  0
 17 37  1  0  0  0  0
 18 19  1  0  0  0  0
 18 38  1  0  0  0  0
 18 39  1  0  0  0  0
 19 40  1  0  0  0  0
 19 41  1  0  0  0  0
M  END
> <BIOSOLVEIT.HYDE_ESTIMATED_AFFINITY_LOWER_BOUNDARY [nM]>
38951164.175759

> <BIOSOLVEIT.HYDE_ESTIMATED_AFFINITY_UPPER_BOUNDARY [nM]>
3870028458.370254

> <BIOSOLVEIT.HYDE_LIGAND_EFFICIENCY range: ++, +, 0, -, -->
--

> <BIOSOLVEIT.HYDE_LIGAND_LIPOPHILIC_EFFICIENCY range: ++, +, 0, -, -->
--

> <BIOSOLVEIT.INTER_CLASH range: red, yellow, green>
green

> <BIOSOLVEIT.INTRA_CLASH range: red, yellow, green>
green

> <BIOSOLVEIT.LOGP>
4.80332

> <BIOSOLVEIT.MOLECULAR WEIGHT>
279.809

> <BIOSOLVEIT.MOLECULE_CHECKSUM>
LTIuMzQ1MzI7MC4xMjM0Mzg=

> <BIOSOLVEIT.TORSION_QUALITY range: red, yellow, green, not rotatable>
yellow

> <BIOSOLVEIT.TPSA>
29.1

$$$$
Z1203922336.****
b8Hydescor01032215413D 1   1.00000     0.00000     0
Hydescorer 1.1.2 b8048283
 41 42  0  0  0  0            999 V2000
   14.9223  -32.2428  -10.2669 C   0  0  0  0  0  0  0  0  0  0  0  0
   14.8278  -33.5975   -9.9607 C   0  0  0  0  0  0  0  0  0  0  0  0
   15.7442  -34.5111  -10.4832 C   0  0  0  0  0  0  0  0  0  0  0  0
   16.7648  -34.0344  -11.3222 C   0  0  0  0  0  0  0  0  0  0  0  0
   16.8709  -32.6776  -11.6305 C   0  0  0  0  0  0  0  0  0  0  0  0
   15.9438  -31.7847  -11.1008 C   0  0  0  0  0  0  0  0  0  0  0  0
   16.0573  -30.0956  -11.4689 Cl  0  0  0  0  0  0  0  0  0  0  0  0
   15.6135  -35.9847  -10.1383 C   0  0  0  0  0  0  0  0  0  0  0  0
   17.7100  -34.9668  -11.8229 N   0  0  0  0  0  0  0  0  0  0  0  0
   17.8802  -35.3633  -13.1250 C   0  0  0  0  0  0  0  0  0  0  0  0
   18.9842  -36.3893  -13.3752 C   0  0  1  0  0  0  0  0  0  0  0  0
   17.1467  -34.9487  -13.9995 O   0  0  0  0  0  0  0  0  0  0  0  0
   18.4216  -37.7766  -12.9587 C   0  0  0  0  0  0  0  0  0  0  0  0
   19.3344  -36.3843  -14.8844 C   0  0  0  0  0  0  0  0  0  0  0  0
   17.3081  -38.2295  -13.9254 C   0  0  0  0  0  0  0  0  0  0  0  0
   17.4728  -39.6412  -14.4966 C   0  0  0  0  0  0  0  0  0  0  0  0
   16.0655  -40.0552  -14.9395 C   0  0  0  0  0  0  0  0  0  0  0  0
   15.0969  -39.1297  -14.1944 C   0  0  0  0  0  0  0  0  0  0  0  0
   15.9629  -38.3465  -13.2095 C   0  0  0  0  0  0  0  0  0  0  0  0
   14.2582  -31.5976   -9.8893 H   0  0  0  0  0  0  0  0  0  0  0  0
   14.0958  -33.9193   -9.3602 H   0  0  0  0  0  0  0  0  0  0  0  0
   17.6049  -32.3503  -12.2256 H   0  0  0  0  0  0  0  0  0  0  0  0
   16.3428  -36.4987  -10.5900 H   0  0  0  0  0  0  0  0  0  0  0  0
   15.6865  -36.1030   -9.1480 H   0  0  0  0  0  0  0  0  0  0  0  0
   14.7254  -36.3225  -10.4498 H   0  0  0  0  0  0  0  0  0  0  0  0
   18.3217  -35.3823  -11.1497 H   0  0  0  0  0  0  0  0  0  0  0  0
   19.7933  -36.1666  -12.8315 H   0  0  0  0  0  0  0  0  0  0  0  0
   18.0470  -37.7139  -12.0336 H   0  0  0  0  0  0  0  0  0  0  0  0
   19.1620  -38.4485  -12.9737 H   0  0  0  0  0  0  0  0  0  0  0  0
   20.0569  -37.0527  -15.0612 H   0  0  0  0  0  0  0  0  0  0  0  0
   18.5218  -36.6234  -15.4160 H   0  0  0  0  0  0  0  0  0  0  0  0
   19.6506  -35.4735  -15.1502 H   0  0  0  0  0  0  0  0  0  0  0  0
   17.2305  -37.5731  -14.6758 H   0  0  0  0  0  0  0  0  0  0  0  0
   17.8190  -40.2656  -13.7965 H   0  0  0  0  0  0  0  0  0  0  0  0
   18.0990  -39.6342  -15.2763 H   0  0  0  0  0  0  0  0  0  0  0  0
   15.8913  -41.0092  -14.6953 H   0  0  0  0  0  0  0  0  0  0  0  0
   15.9647  -39.9403  -15.9278 H   0  0  0  0  0  0  0  0  0  0  0  0
   14.4075  -39.6646  -13.7058 H   0  0  0  0  0  0  0  0  0  0  0  0
   14.6447  -38.5081  -14.8340 H   0  0  0  0  0  0  0  0  0  0  0  0
   15.5733  -37.4427  -13.0322 H   0  0  0  0  0  0  0  0  0  0  0  0
   16.0599  -38.8427  -12.3468 H   0  0  0  0  0  0  0  0  0  0  0  0
  1  2  2  0  0  0  0
  1  6  1  0  0  0  0
  1 20  1  0  0  0  0
  2  3  1  0  0  0  0
  2 21  1  0  0  0  0
  3  4  2  0  0  0  0
  3  8  1  0  0  0  0
  4  5  1  0  0  0  0
  4  9  1  0  0  0  0
  5  6  2  0  0  0  0
  5 22  1  0  0  0  0
  6  7  1  0  0  0  0
  8 23  1  0  0  0  0
  8 24  1  0  0  0  0
  8 25  1  0  0  0  0
  9 10  1  0  0  0  0
  9 26  1  0  0  0  0
 10 11  1  0  0  0  0
 10 12  2  0  0  0  0
 11 13  1  0  0  0  0
 11 14  1  0  0  0  0
 11 27  1  0  0  0  0
 13 15  1  0  0  0  0
 13 28  1  0  0  0  0
 13 29  1  0  0  0  0
 14 30  1  0  0  0  0
 14 31  1  0  0  0  0
 14 32  1  0  0  0  0
 15 16  1  0  0  0  0
 15 19  1  0  0  0  0
 15 33  1  0  0  0  0
 16 17  1  0  0  0  0
 16 34  1  0  0  0  0
 16 35  1  0  0  0  0
 17 18  1  0  0  0  0
 17 36  1  0  0  0  0
 17 37  1  0  0  0  0
 18 19  1  0  0  0  0
 18 38  1  0  0  0  0
 18 39  1  0  0  0  0
 19 40  1  0  0  0  0
 19 41  1  0  0  0  0
M  END
> <BIOSOLVEIT.HYDE_ESTIMATED_AFFINITY_LOWER_BOUNDARY [nM]>
647977.597328

> <BIOSOLVEIT.HYDE_ESTIMATED_AFFINITY_UPPER_BOUNDARY [nM]>
64380405.441261

> <BIOSOLVEIT.HYDE_LIGAND_EFFICIENCY range: ++, +, 0, -, -->
--

> <BIOSOLVEIT.HYDE_LIGAND_LIPOPHILIC_EFFICIENCY range: ++, +, 0, -, -->
--

> <BIOSOLVEIT.INTER_CLASH range: red, yellow, green>
green

> <BIOSOLVEIT.INTRA_CLASH range: red, yellow, green>
green

> <BIOSOLVEIT.LOGP>
4.80332

> <BIOSOLVEIT.MOLECULAR WEIGHT>
279.809

> <BIOSOLVEIT.MOLECULE_CHECKSUM>
LTEyLjQ5OTY7MC42NTc4NzY=

> <BIOSOLVEIT.TORSION_QUALITY range: red, yellow, green, not rotatable>
yellow

> <BIOSOLVEIT.TPSA>
29.1

$$$$
Z1203922336.****
b8Hydescor01032215413D 1   1.00000     0.00000     0
Hydescorer 1.1.2 b8048283
 41 42  0  0  0  0            999 V2000
   16.8747  -39.3454  -16.7966 C   0  0  0  0  0  0  0  0  0  0  0  0
   15.5731  -39.3003  -16.3049 C   0  0  0  0  0  0  0  0  0  0  0  0
   15.2094  -38.3620  -15.3382 C   0  0  0  0  0  0  0  0  0  0  0  0
   16.1836  -37.4629  -14.8740 C   0  0  0  0  0  0  0  0  0  0  0  0
   17.4894  -37.4969  -15.3646 C   0  0  0  0  0  0  0  0  0  0  0  0
   17.8308  -38.4436  -16.3264 C   0  0  0  0  0  0  0  0  0  0  0  0
   19.4457  -38.5028  -16.9508 Cl  0  0  0  0  0  0  0  0  0  0  0  0
   13.7837  -38.3395  -14.8140 C   0  0  0  0  0  0  0  0  0  0  0  0
   15.7957  -36.4924  -13.9141 N   0  0  0  0  0  0  0  0  0  0  0  0
   15.6144  -35.1477  -14.1151 C   0  0  0  0  0  0  0  0  0  0  0  0
   15.1920  -34.3372  -12.8909 C   0  0  1  0  0  0  0  0  0  0  0  0
   15.8368  -34.6481  -15.1994 O   0  0  0  0  0  0  0  0  0  0  0  0
   16.4913  -33.9290  -12.1426 C   0  0  0  0  0  0  0  0  0  0  0  0
   14.4302  -33.0755  -13.3689 C   0  0  0  0  0  0  0  0  0  0  0  0
   16.9370  -35.0413  -11.1712 C   0  0  0  0  0  0  0  0  0  0  0  0
   18.2680  -35.7160  -11.5167 C   0  0  0  0  0  0  0  0  0  0  0  0
   18.7504  -36.3359  -10.2010 C   0  0  0  0  0  0  0  0  0  0  0  0
   17.9842  -35.6144   -9.0862 C   0  0  0  0  0  0  0  0  0  0  0  0
   17.2327  -34.4801   -9.7807 C   0  0  0  0  0  0  0  0  0  0  0  0
   17.1249  -40.0242  -17.4869 H   0  0  0  0  0  0  0  0  0  0  0  0
   14.8918  -39.9469  -16.6480 H   0  0  0  0  0  0  0  0  0  0  0  0
   18.1725  -36.8483  -15.0290 H   0  0  0  0  0  0  0  0  0  0  0  0
   13.6905  -37.6135  -14.1327 H   0  0  0  0  0  0  0  0  0  0  0  0
   13.1529  -38.1692  -15.5710 H   0  0  0  0  0  0  0  0  0  0  0  0
   13.5694  -39.2210  -14.3934 H   0  0  0  0  0  0  0  0  0  0  0  0
   15.6363  -36.8269  -12.9853 H   0  0  0  0  0  0  0  0  0  0  0  0
   14.6083  -34.8889  -12.2952 H   0  0  0  0  0  0  0  0  0  0  0  0
   16.3217  -33.0904  -11.6250 H   0  0  0  0  0  0  0  0  0  0  0  0
   17.2173  -33.7673  -12.8109 H   0  0  0  0  0  0  0  0  0  0  0  0
   14.1480  -32.5360  -12.5756 H   0  0  0  0  0  0  0  0  0  0  0  0
   15.0290  -32.5250  -13.9505 H   0  0  0  0  0  0  0  0  0  0  0  0
   13.6218  -33.3513  -13.8890 H   0  0  0  0  0  0  0  0  0  0  0  0
   16.2190  -35.7342  -11.1055 H   0  0  0  0  0  0  0  0  0  0  0  0
   18.9275  -35.0425  -11.8507 H   0  0  0  0  0  0  0  0  0  0  0  0
   18.1340  -36.4236  -12.2104 H   0  0  0  0  0  0  0  0  0  0  0  0
   19.7347  -36.1968  -10.0919 H   0  0  0  0  0  0  0  0  0  0  0  0
   18.5483  -37.3151  -10.1838 H   0  0  0  0  0  0  0  0  0  0  0  0
   18.6187  -35.2487   -8.4053 H   0  0  0  0  0  0  0  0  0  0  0  0
   17.3422  -36.2392   -8.6418 H   0  0  0  0  0  0  0  0  0  0  0  0
   16.3855  -34.2639   -9.2956 H   0  0  0  0  0  0  0  0  0  0  0  0
   17.8013  -33.6596   -9.8406 H   0  0  0  0  0  0  0  0  0  0  0  0
  1  2  2  0  0  0  0
  1  6  1  0  0  0  0
  1 20  1  0  0  0  0
  2  3  1  0  0  0  0
  2 21  1  0  0  0  0
  3  4  2  0  0  0  0
  3  8  1  0  0  0  0
  4  5  1  0  0  0  0
  4  9  1  0  0  0  0
  5  6  2  0  0  0  0
  5 22  1  0  0  0  0
  6  7  1  0  0  0  0
  8 23  1  0  0  0  0
  8 24  1  0  0  0  0
  8 25  1  0  0  0  0
  9 10  1  0  0  0  0
  9 26  1  0  0  0  0
 10 11  1  0  0  0  0
 10 12  2  0  0  0  0
 11 13  1  0  0  0  0
 11 14  1  0  0  0  0
 11 27  1  0  0  0  0
 13 15  1  0  0  0  0
 13 28  1  0  0  0  0
 13 29  1  0  0  0  0
 14 30  1  0  0  0  0
 14 31  1  0  0  0  0
 14 32  1  0  0  0  0
 15 16  1  0  0  0  0
 15 19  1  0  0  0  0
 15 33  1  0  0  0  0
 16 17  1  0  0  0  0
 16 34  1  0  0  0  0
 16 35  1  0  0  0  0
 17 18  1  0  0  0  0
 17 36  1  0  0  0  0
 17 37  1  0  0  0  0
 18 19  1  0  0  0  0
 18 38  1  0  0  0  0
 18 39  1  0  0  0  0
 19 40  1  0  0  0  0
 19 41  1  0  0  0  0
M  END
> <BIOSOLVEIT.HYDE_ESTIMATED_AFFINITY_LOWER_BOUNDARY [nM]>
565317.501037

> <BIOSOLVEIT.HYDE_ESTIMATED_AFFINITY_UPPER_BOUNDARY [nM]>
56167636.149567

> <BIOSOLVEIT.HYDE_LIGAND_EFFICIENCY range: ++, +, 0, -, -->
--

> <BIOSOLVEIT.HYDE_LIGAND_LIPOPHILIC_EFFICIENCY range: ++, +, 0, -, -->
--

> <BIOSOLVEIT.INTER_CLASH range: red, yellow, green>
green

> <BIOSOLVEIT.INTRA_CLASH range: red, yellow, green>
green

> <BIOSOLVEIT.LOGP>
4.80332

> <BIOSOLVEIT.MOLECULAR WEIGHT>
279.809

> <BIOSOLVEIT.MOLECULE_CHECKSUM>
LTEyLjgzNzk7MC42NzU2ODE=

> <BIOSOLVEIT.TORSION_QUALITY range: red, yellow, green, not rotatable>
yellow

> <BIOSOLVEIT.TPSA>
29.1

$$$$
Z1203922336.****
b8Hydescor01032215413D 1   1.00000     0.00000     0
Hydescorer 1.1.2 b8048283
 41 42  0  0  0  0            999 V2000
   14.7838  -42.7092  -12.9242 C   0  0  0  0  0  0  0  0  0  0  0  0
   15.6131  -41.9042  -13.7003 C   0  0  0  0  0  0  0  0  0  0  0  0
   15.7735  -40.5505  -13.4018 C   0  0  0  0  0  0  0  0  0  0  0  0
   15.0826  -40.0185  -12.3006 C   0  0  0  0  0  0  0  0  0  0  0  0
   14.2533  -40.8186  -11.5137 C   0  0  0  0  0  0  0  0  0  0  0  0
   14.1056  -42.1656  -11.8318 C   0  0  0  0  0  0  0  0  0  0  0  0
   13.0825  -43.1779  -10.8677 Cl  0  0  0  0  0  0  0  0  0  0  0  0
   16.6792  -39.6936  -14.2695 C   0  0  0  0  0  0  0  0  0  0  0  0
   15.2772  -38.6483  -11.9866 N   0  0  0  0  0  0  0  0  0  0  0  0
   14.4211  -37.6063  -12.2376 C   0  0  0  0  0  0  0  0  0  0  0  0
   14.8942  -36.2256  -11.7861 C   0  0  1  0  0  0  0  0  0  0  0  0
   13.3795  -37.7904  -12.8341 O   0  0  0  0  0  0  0  0  0  0  0  0
   14.4368  -35.2092  -12.8688 C   0  0  0  0  0  0  0  0  0  0  0  0
   14.2316  -35.8936  -10.4255 C   0  0  0  0  0  0  0  0  0  0  0  0
   15.6279  -34.7669  -13.7437 C   0  0  0  0  0  0  0  0  0  0  0  0
   16.9475  -34.5588  -12.9943 C   0  0  0  0  0  0  0  0  0  0  0  0
   18.0346  -34.6751  -14.0680 C   0  0  0  0  0  0  0  0  0  0  0  0
   17.3873  -35.4071  -15.2494 C   0  0  0  0  0  0  0  0  0  0  0  0
   16.0157  -35.8534  -14.7460 C   0  0  0  0  0  0  0  0  0  0  0  0
   14.6740  -43.6773  -13.1493 H   0  0  0  0  0  0  0  0  0  0  0  0
   16.0987  -42.3001  -14.4796 H   0  0  0  0  0  0  0  0  0  0  0  0
   13.7704  -40.4285  -10.7297 H   0  0  0  0  0  0  0  0  0  0  0  0
   16.6835  -38.7558  -13.9224 H   0  0  0  0  0  0  0  0  0  0  0  0
   17.6087  -40.0619  -14.2466 H   0  0  0  0  0  0  0  0  0  0  0  0
   16.3417  -39.6991  -15.2108 H   0  0  0  0  0  0  0  0  0  0  0  0
   16.1362  -38.4159  -11.5305 H   0  0  0  0  0  0  0  0  0  0  0  0
   15.8903  -36.2128  -11.6982 H   0  0  0  0  0  0  0  0  0  0  0  0
   14.0441  -34.4066  -12.4199 H   0  0  0  0  0  0  0  0  0  0  0  0
   13.7450  -35.6381  -13.4497 H   0  0  0  0  0  0  0  0  0  0  0  0
   14.5339  -34.9910  -10.1189 H   0  0  0  0  0  0  0  0  0  0  0  0
   13.2371  -35.8944  -10.5301 H   0  0  0  0  0  0  0  0  0  0  0  0
   14.4962  -36.5811   -9.7493 H   0  0  0  0  0  0  0  0  0  0  0  0
   15.3879  -33.9297  -14.2353 H   0  0  0  0  0  0  0  0  0  0  0  0
   17.0687  -35.2619  -12.2936 H   0  0  0  0  0  0  0  0  0  0  0  0
   16.9706  -33.6550  -12.5671 H   0  0  0  0  0  0  0  0  0  0  0  0
   18.8123  -35.1982  -13.7194 H   0  0  0  0  0  0  0  0  0  0  0  0
   18.3432  -33.7665  -14.3495 H   0  0  0  0  0  0  0  0  0  0  0  0
   17.9375  -36.1988  -15.5146 H   0  0  0  0  0  0  0  0  0  0  0  0
   17.2899  -34.7917  -16.0316 H   0  0  0  0  0  0  0  0  0  0  0  0
   15.3570  -35.8974  -15.4971 H   0  0  0  0  0  0  0  0  0  0  0  0
   16.0727  -36.7465  -14.2998 H   0  0  0  0  0  0  0  0  0  0  0  0
  1  2  2  0  0  0  0
  1  6  1  0  0  0  0
  1 20  1  0  0  0  0
  2  3  1  0  0  0  0
  2 21  1  0  0  0  0
  3  4  2  0  0  0  0
  3  8  1  0  0  0  0
  4  5  1  0  0  0  0
  4  9  1  0  0  0  0
  5  6  2  0  0  0  0
  5 22  1  0  0  0  0
  6  7  1  0  0  0  0
  8 23  1  0  0  0  0
  8 24  1  0  0  0  0
  8 25  1  0  0  0  0
  9 10  1  0  0  0  0
  9 26  1  0  0  0  0
 10 11  1  0  0  0  0
 10 12  2  0  0  0  0
 11 13  1  0  0  0  0
 11 14  1  0  0  0  0
 11 27  1  0  0  0  0
 13 15  1  0  0  0  0
 13 28  1  0  0  0  0
 13 29  1  0  0  0  0
 14 30  1  0  0  0  0
 14 31  1  0  0  0  0
 14 32  1  0  0  0  0
 15 16  1  0  0  0  0
 15 19  1  0  0  0  0
 15 33  1  0  0  0  0
 16 17  1  0  0  0  0
 16 34  1  0  0  0  0
 16 35  1  0  0  0  0
 17 18  1  0  0  0  0
 17 36  1  0  0  0  0
 17 37  1  0  0  0  0
 18 19  1  0  0  0  0
 18 38  1  0  0  0  0
 18 39  1  0  0  0  0
 19 40  1  0  0  0  0
 19 41  1  0  0  0  0
M  END
> <BIOSOLVEIT.HYDE_ESTIMATED_AFFINITY_LOWER_BOUNDARY [nM]>
77244471.973434

> <BIOSOLVEIT.HYDE_ESTIMATED_AFFINITY_UPPER_BOUNDARY [nM]>
7674694996.023141

> <BIOSOLVEIT.HYDE_LIGAND_EFFICIENCY range: ++, +, 0, -, -->
--

> <BIOSOLVEIT.HYDE_LIGAND_LIPOPHILIC_EFFICIENCY range: ++, +, 0, -, -->
--

> <BIOSOLVEIT.INTER_CLASH range: red, yellow, green>
green

> <BIOSOLVEIT.INTRA_CLASH range: red, yellow, green>
green

> <BIOSOLVEIT.LOGP>
4.80332

> <BIOSOLVEIT.MOLECULAR WEIGHT>
279.809

> <BIOSOLVEIT.MOLECULE_CHECKSUM>
LTAuNjQ4MDYzOzAuMDM0MTA4Ng==

> <BIOSOLVEIT.TORSION_QUALITY range: red, yellow, green, not rotatable>
red

> <BIOSOLVEIT.TPSA>
29.1

$$$$
Z1203922336.****
b8Hydescor01032215413D 1   1.00000     0.00000     0
Hydescorer 1.1.2 b8048283
 41 42  0  0  0  0            999 V2000
   17.3555  -43.8028  -11.6896 C   0  0  0  0  0  0  0  0  0  0  0  0
   16.5236  -42.8906  -12.3329 C   0  0  0  0  0  0  0  0  0  0  0  0
   16.9696  -41.6000  -12.6204 C   0  0  0  0  0  0  0  0  0  0  0  0
   18.2762  -41.2421  -12.2491 C   0  0  0  0  0  0  0  0  0  0  0  0
   19.1192  -42.1511  -11.6087 C   0  0  0  0  0  0  0  0  0  0  0  0
   18.6520  -43.4321  -11.3289 C   0  0  0  0  0  0  0  0  0  0  0  0
   19.6820  -44.5775  -10.5361 Cl  0  0  0  0  0  0  0  0  0  0  0  0
   16.0385  -40.6226  -13.3170 C   0  0  0  0  0  0  0  0  0  0  0  0
   18.7308  -39.9377  -12.5740 N   0  0  0  0  0  0  0  0  0  0  0  0
   18.4908  -38.7759  -11.8854 C   0  0  0  0  0  0  0  0  0  0  0  0
   19.1108  -37.5084  -12.4711 C   0  0  1  0  0  0  0  0  0  0  0  0
   17.7785  -38.7749  -10.9019 O   0  0  0  0  0  0  0  0  0  0  0  0
   18.4909  -36.3031  -11.7110 C   0  0  0  0  0  0  0  0  0  0  0  0
   20.6428  -37.5542  -12.2445 C   0  0  0  0  0  0  0  0  0  0  0  0
   17.6981  -35.3964  -12.6746 C   0  0  0  0  0  0  0  0  0  0  0  0
   16.5283  -36.0734  -13.3954 C   0  0  0  0  0  0  0  0  0  0  0  0
   15.6088  -34.9244  -13.8227 C   0  0  0  0  0  0  0  0  0  0  0  0
   15.9929  -33.7259  -12.9474 C   0  0  0  0  0  0  0  0  0  0  0  0
   16.9829  -34.2750  -11.9217 C   0  0  0  0  0  0  0  0  0  0  0  0
   17.0241  -44.7240  -11.4859 H   0  0  0  0  0  0  0  0  0  0  0  0
   15.5968  -43.1630  -12.5916 H   0  0  0  0  0  0  0  0  0  0  0  0
   20.0488  -41.8852  -11.3536 H   0  0  0  0  0  0  0  0  0  0  0  0
   16.5088  -39.7498  -13.4478 H   0  0  0  0  0  0  0  0  0  0  0  0
   15.7707  -40.9935  -14.2062 H   0  0  0  0  0  0  0  0  0  0  0  0
   15.2231  -40.4811  -12.7556 H   0  0  0  0  0  0  0  0  0  0  0  0
   19.2901  -39.8561  -13.3990 H   0  0  0  0  0  0  0  0  0  0  0  0
   18.9073  -37.4432  -13.4480 H   0  0  0  0  0  0  0  0  0  0  0  0
   19.2239  -35.7704  -11.2881 H   0  0  0  0  0  0  0  0  0  0  0  0
   17.8750  -36.6450  -11.0013 H   0  0  0  0  0  0  0  0  0  0  0  0
   21.0607  -36.7288  -12.6241 H   0  0  0  0  0  0  0  0  0  0  0  0
   20.8334  -37.6037  -11.2640 H   0  0  0  0  0  0  0  0  0  0  0  0
   21.0232  -38.3596  -12.6990 H   0  0  0  0  0  0  0  0  0  0  0  0
   18.3214  -35.0007  -13.3490 H   0  0  0  0  0  0  0  0  0  0  0  0
   16.0484  -36.6970  -12.7783 H   0  0  0  0  0  0  0  0  0  0  0  0
   16.8531  -36.5795  -14.1944 H   0  0  0  0  0  0  0  0  0  0  0  0
   14.6515  -35.1715  -13.6724 H   0  0  0  0  0  0  0  0  0  0  0  0
   15.7494  -34.7081  -14.7888 H   0  0  0  0  0  0  0  0  0  0  0  0
   15.1854  -33.3534  -12.4900 H   0  0  0  0  0  0  0  0  0  0  0  0
   16.4219  -33.0117  -13.5006 H   0  0  0  0  0  0  0  0  0  0  0  0
   17.6297  -33.5679  -11.6361 H   0  0  0  0  0  0  0  0  0  0  0  0
   16.5042  -34.6325  -11.1198 H   0  0  0  0  0  0  0  0  0  0  0  0
  1  2  2  0  0  0  0
  1  6  1  0  0  0  0
  1 20  1  0  0  0  0
  2  3  1  0  0  0  0
  2 21  1  0  0  0  0
  3  4  2  0  0  0  0
  3  8  1  0  0  0  0
  4  5  1  0  0  0  0
  4  9  1  0  0  0  0
  5  6  2  0  0  0  0
  5 22  1  0  0  0  0
  6  7  1  0  0  0  0
  8 23  1  0  0  0  0
  8 24  1  0  0  0  0
  8 25  1  0  0  0  0
  9 10  1  0  0  0  0
  9 26  1  0  0  0  0
 10 11  1  0  0  0  0
 10 12  2  0  0  0  0
 11 13  1  0  0  0  0
 11 14  1  0  0  0  0
 11 27  1  0  0  0  0
 13 15  1  0  0  0  0
 13 28  1  0  0  0  0
 13 29  1  0  0  0  0
 14 30  1  0  0  0  0
 14 31  1  0  0  0  0
 14 32  1  0  0  0  0
 15 16  1  0  0  0  0
 15 19  1  0  0  0  0
 15 33  1  0  0  0  0
 16 17  1  0  0  0  0
 16 34  1  0  0  0  0
 16 35  1  0  0  0  0
 17 18  1  0  0  0  0
 17 36  1  0  0  0  0
 17 37  1  0  0  0  0
 18 19  1  0  0  0  0
 18 38  1  0  0  0  0
 18 39  1  0  0  0  0
 19 40  1  0  0  0  0
 19 41  1  0  0  0  0
M  END
> <BIOSOLVEIT.HYDE_ESTIMATED_AFFINITY_LOWER_BOUNDARY [nM]>
8840082.220325

> <BIOSOLVEIT.HYDE_ESTIMATED_AFFINITY_UPPER_BOUNDARY [nM]>
878314435.291860

> <BIOSOLVEIT.HYDE_LIGAND_EFFICIENCY range: ++, +, 0, -, -->
--

> <BIOSOLVEIT.HYDE_LIGAND_LIPOPHILIC_EFFICIENCY range: ++, +, 0, -, -->
--

> <BIOSOLVEIT.INTER_CLASH range: red, yellow, green>
green

> <BIOSOLVEIT.INTRA_CLASH range: red, yellow, green>
green

> <BIOSOLVEIT.LOGP>
4.80332

> <BIOSOLVEIT.MOLECULAR WEIGHT>
279.809

> <BIOSOLVEIT.MOLECULE_CHECKSUM>
LTYuMDIxNjU7MC4zMTY5Mjk=

> <BIOSOLVEIT.TORSION_QUALITY range: red, yellow, green, not rotatable>
yellow

> <BIOSOLVEIT.TPSA>
29.1

$$$$
Z854669466.****
b8Hydescor01032215413D 1   1.00000     0.00000     0
Hydescorer 1.1.2 b8048283
 39 41  0  0  0  0            999 V2000
   14.9472  -33.0436  -13.0760 C   0  0  0  0  0  0  0  0  0  0  0  0
   14.8342  -34.3725  -13.4780 C   0  0  0  0  0  0  0  0  0  0  0  0
   15.7315  -35.3344  -13.0156 C   0  0  0  0  0  0  0  0  0  0  0  0
   16.7509  -34.9361  -12.1351 C   0  0  0  0  0  0  0  0  0  0  0  0
   16.8747  -33.6061  -11.7307 C   0  0  0  0  0  0  0  0  0  0  0  0
   15.9668  -32.6628  -12.2027 C   0  0  0  0  0  0  0  0  0  0  0  0
   16.1055  -31.0061  -11.7152 Cl  0  0  0  0  0  0  0  0  0  0  0  0
   15.5819  -36.7773  -13.4668 C   0  0  0  0  0  0  0  0  0  0  0  0
   17.6797  -35.9139  -11.6967 N   0  0  0  0  0  0  0  0  0  0  0  0
   18.7789  -36.3781  -12.3733 C   0  0  0  0  0  0  0  0  0  0  0  0
   19.6121  -37.4298  -11.6794 C   0  0  0  0  0  0  0  0  0  0  0  0
   19.0697  -35.9425  -13.4650 O   0  0  0  0  0  0  0  0  0  0  0  0
   19.5338  -38.7289  -12.5159 C   0  0  0  0  0  0  0  0  0  0  0  0
   18.1083  -38.8657  -13.1000 C   0  0  0  0  0  0  0  0  0  0  0  0
   20.4898  -38.5352  -13.7132 C   0  0  0  0  0  0  0  0  0  0  0  0
   21.9170  -38.2152  -13.3740 C   0  0  0  0  0  0  0  0  0  0  0  0
   21.5481  -39.5833  -13.8984 C   0  0  0  0  0  0  0  0  0  0  0  0
   17.8774  -40.0266  -14.0245 C   0  0  0  0  0  0  0  0  0  0  0  0
   17.3035  -40.0424  -12.6268 C   0  0  0  0  0  0  0  0  0  0  0  0
   14.2975  -32.3623  -13.4133 H   0  0  0  0  0  0  0  0  0  0  0  0
   14.1020  -34.6393  -14.1046 H   0  0  0  0  0  0  0  0  0  0  0  0
   17.6083  -33.3337  -11.1081 H   0  0  0  0  0  0  0  0  0  0  0  0
   16.2993  -37.3337  -13.0476 H   0  0  0  0  0  0  0  0  0  0  0  0
   14.6860  -37.1227  -13.1874 H   0  0  0  0  0  0  0  0  0  0  0  0
   15.6619  -36.8252  -14.4624 H   0  0  0  0  0  0  0  0  0  0  0  0
   17.5149  -36.3093  -10.7931 H   0  0  0  0  0  0  0  0  0  0  0  0
   19.2535  -37.5954  -10.7606 H   0  0  0  0  0  0  0  0  0  0  0  0
   20.5619  -37.1232  -11.6162 H   0  0  0  0  0  0  0  0  0  0  0  0
   19.7853  -39.5298  -11.9726 H   0  0  0  0  0  0  0  0  0  0  0  0
   17.6109  -38.0203  -13.2948 H   0  0  0  0  0  0  0  0  0  0  0  0
   20.1107  -38.1168  -14.5386 H   0  0  0  0  0  0  0  0  0  0  0  0
   22.1912  -38.1024  -12.4190 H   0  0  0  0  0  0  0  0  0  0  0  0
   22.4382  -37.5831  -13.9474 H   0  0  0  0  0  0  0  0  0  0  0  0
   21.8249  -39.8578  -14.8193 H   0  0  0  0  0  0  0  0  0  0  0  0
   21.5781  -40.3771  -13.2909 H   0  0  0  0  0  0  0  0  0  0  0  0
   18.6342  -40.6358  -14.2617 H   0  0  0  0  0  0  0  0  0  0  0  0
   17.2712  -39.9254  -14.8134 H   0  0  0  0  0  0  0  0  0  0  0  0
   16.3171  -39.9516  -12.4896 H   0  0  0  0  0  0  0  0  0  0  0  0
   17.6801  -40.6619  -11.9380 H   0  0  0  0  0  0  0  0  0  0  0  0
  1  2  2  0  0  0  0
  1  6  1  0  0  0  0
  1 20  1  0  0  0  0
  2  3  1  0  0  0  0
  2 21  1  0  0  0  0
  3  4  2  0  0  0  0
  3  8  1  0  0  0  0
  4  5  1  0  0  0  0
  4  9  1  0  0  0  0
  5  6  2  0  0  0  0
  5 22  1  0  0  0  0
  6  7  1  0  0  0  0
  8 23  1  0  0  0  0
  8 24  1  0  0  0  0
  8 25  1  0  0  0  0
  9 10  1  0  0  0  0
  9 26  1  0  0  0  0
 10 11  1  0  0  0  0
 10 12  2  0  0  0  0
 11 13  1  0  0  0  0
 11 27  1  0  0  0  0
 11 28  1  0  0  0  0
 13 14  1  0  0  0  0
 13 15  1  0  0  0  0
 13 29  1  0  0  0  0
 14 18  1  0  0  0  0
 14 19  1  0  0  0  0
 14 30  1  0  0  0  0
 15 16  1  0  0  0  0
 15 17  1  0  0  0  0
 15 31  1  0  0  0  0
 16 17  1  0  0  0  0
 16 32  1  0  0  0  0
 16 33  1  0  0  0  0
 17 34  1  0  0  0  0
 17 35  1  0  0  0  0
 18 19  1  0  0  0  0
 18 36  1  0  0  0  0
 18 37  1  0  0  0  0
 19 38  1  0  0  0  0
 19 39  1  0  0  0  0
M  END
> <BIOSOLVEIT.HYDE_ESTIMATED_AFFINITY_LOWER_BOUNDARY [nM]>
5525837.175495

> <BIOSOLVEIT.HYDE_ESTIMATED_AFFINITY_UPPER_BOUNDARY [nM]>
549024594.720492

> <BIOSOLVEIT.HYDE_LIGAND_EFFICIENCY range: ++, +, 0, -, -->
--

> <BIOSOLVEIT.HYDE_LIGAND_LIPOPHILIC_EFFICIENCY range: ++, +, 0, -, -->
--

> <BIOSOLVEIT.INTER_CLASH range: red, yellow, green>
green

> <BIOSOLVEIT.INTRA_CLASH range: red, yellow, green>
green

> <BIOSOLVEIT.LOGP>
4.41322

> <BIOSOLVEIT.MOLECULAR WEIGHT>
277.793

> <BIOSOLVEIT.MOLECULE_CHECKSUM>
LTcuMTg2NDE7MC4zNzgyMzI=

> <BIOSOLVEIT.TORSION_QUALITY range: red, yellow, green, not rotatable>
green

> <BIOSOLVEIT.TPSA>
29.1

$$$$
Z854669466.****
b8Hydescor01032215413D 1   1.00000     0.00000     0
Hydescorer 1.1.2 b8048283
 39 41  0  0  0  0            999 V2000
   20.9855  -40.2664  -13.6478 C   0  0  0  0  0  0  0  0  0  0  0  0
   20.7998  -38.9542  -14.0768 C   0  0  0  0  0  0  0  0  0  0  0  0
   19.9048  -38.1107  -13.4198 C   0  0  0  0  0  0  0  0  0  0  0  0
   19.1953  -38.6110  -12.3154 C   0  0  0  0  0  0  0  0  0  0  0  0
   19.3714  -39.9257  -11.8816 C   0  0  0  0  0  0  0  0  0  0  0  0
   20.2715  -40.7496  -12.5507 C   0  0  0  0  0  0  0  0  0  0  0  0
   20.5019  -42.3858  -12.0297 Cl  0  0  0  0  0  0  0  0  0  0  0  0
   19.7254  -36.6828  -13.9064 C   0  0  0  0  0  0  0  0  0  0  0  0
   18.2619  -37.7575  -11.6742 N   0  0  0  0  0  0  0  0  0  0  0  0
   16.9096  -37.6903  -11.8944 C   0  0  0  0  0  0  0  0  0  0  0  0
   16.1347  -36.6873  -11.0727 C   0  0  0  0  0  0  0  0  0  0  0  0
   16.3710  -38.4204  -12.6959 O   0  0  0  0  0  0  0  0  0  0  0  0
   16.0720  -35.3635  -11.8711 C   0  0  0  0  0  0  0  0  0  0  0  0
   14.5965  -34.9136  -11.9838 C   0  0  0  0  0  0  0  0  0  0  0  0
   16.7977  -34.3029  -11.0148 C   0  0  0  0  0  0  0  0  0  0  0  0
   16.0483  -33.7952   -9.8169 C   0  0  0  0  0  0  0  0  0  0  0  0
   17.2213  -34.7311   -9.6401 C   0  0  0  0  0  0  0  0  0  0  0  0
   14.3227  -33.7575  -12.9028 C   0  0  0  0  0  0  0  0  0  0  0  0
   13.9234  -35.1586  -13.3041 C   0  0  0  0  0  0  0  0  0  0  0  0
   21.6306  -40.8622  -14.1263 H   0  0  0  0  0  0  0  0  0  0  0  0
   21.3137  -38.6136  -14.8642 H   0  0  0  0  0  0  0  0  0  0  0  0
   18.8560  -40.2722  -11.0978 H   0  0  0  0  0  0  0  0  0  0  0  0
   19.0535  -36.2164  -13.3310 H   0  0  0  0  0  0  0  0  0  0  0  0
   20.6001  -36.2008  -13.8548 H   0  0  0  0  0  0  0  0  0  0  0  0
   19.4047  -36.6912  -14.8535 H   0  0  0  0  0  0  0  0  0  0  0  0
   18.6309  -37.1347  -10.9843 H   0  0  0  0  0  0  0  0  0  0  0  0
   16.5962  -36.5353  -10.1988 H   0  0  0  0  0  0  0  0  0  0  0  0
   15.2092  -37.0275  -10.9062 H   0  0  0  0  0  0  0  0  0  0  0  0
   16.4955  -35.4589  -12.7719 H   0  0  0  0  0  0  0  0  0  0  0  0
   14.0318  -34.9880  -11.1619 H   0  0  0  0  0  0  0  0  0  0  0  0
   17.3882  -33.6536  -11.4941 H   0  0  0  0  0  0  0  0  0  0  0  0
   15.1192  -34.1170   -9.6343 H   0  0  0  0  0  0  0  0  0  0  0  0
   16.1280  -32.8359   -9.5461 H   0  0  0  0  0  0  0  0  0  0  0  0
   18.0782  -34.3918   -9.2520 H   0  0  0  0  0  0  0  0  0  0  0  0
   17.0694  -35.6729   -9.3402 H   0  0  0  0  0  0  0  0  0  0  0  0
   15.0790  -33.2995  -13.3699 H   0  0  0  0  0  0  0  0  0  0  0  0
   13.6210  -33.0854  -12.6663 H   0  0  0  0  0  0  0  0  0  0  0  0
   12.9571  -35.4146  -13.3335 H   0  0  0  0  0  0  0  0  0  0  0  0
   14.4152  -35.6286  -14.0371 H   0  0  0  0  0  0  0  0  0  0  0  0
  1  2  2  0  0  0  0
  1  6  1  0  0  0  0
  1 20  1  0  0  0  0
  2  3  1  0  0  0  0
  2 21  1  0  0  0  0
  3  4  2  0  0  0  0
  3  8  1  0  0  0  0
  4  5  1  0  0  0  0
  4  9  1  0  0  0  0
  5  6  2  0  0  0  0
  5 22  1  0  0  0  0
  6  7  1  0  0  0  0
  8 23  1  0  0  0  0
  8 24  1  0  0  0  0
  8 25  1  0  0  0  0
  9 10  1  0  0  0  0
  9 26  1  0  0  0  0
 10 11  1  0  0  0  0
 10 12  2  0  0  0  0
 11 13  1  0  0  0  0
 11 27  1  0  0  0  0
 11 28  1  0  0  0  0
 13 14  1  0  0  0  0
 13 15  1  0  0  0  0
 13 29  1  0  0  0  0
 14 18  1  0  0  0  0
 14 19  1  0  0  0  0
 14 30  1  0  0  0  0
 15 16  1  0  0  0  0
 15 17  1  0  0  0  0
 15 31  1  0  0  0  0
 16 17  1  0  0  0  0
 16 32  1  0  0  0  0
 16 33  1  0  0  0  0
 17 34  1  0  0  0  0
 17 35  1  0  0  0  0
 18 19  1  0  0  0  0
 18 36  1  0  0  0  0
 18 37  1  0  0  0  0
 19 38  1  0  0  0  0
 19 39  1  0  0  0  0
M  END
> <BIOSOLVEIT.HYDE_ESTIMATED_AFFINITY_LOWER_BOUNDARY [nM]>
40933724.839331

> <BIOSOLVEIT.HYDE_ESTIMATED_AFFINITY_UPPER_BOUNDARY [nM]>
4067007582.122469

> <BIOSOLVEIT.HYDE_LIGAND_EFFICIENCY range: ++, +, 0, -, -->
--

> <BIOSOLVEIT.HYDE_LIGAND_LIPOPHILIC_EFFICIENCY range: ++, +, 0, -, -->
--

> <BIOSOLVEIT.INTER_CLASH range: red, yellow, green>
green

> <BIOSOLVEIT.INTRA_CLASH range: red, yellow, green>
green

> <BIOSOLVEIT.LOGP>
4.41322

> <BIOSOLVEIT.MOLECULAR WEIGHT>
277.793

> <BIOSOLVEIT.MOLECULE_CHECKSUM>
LTIuMjIyMjU7MC4xMTY5NjE=

> <BIOSOLVEIT.TORSION_QUALITY range: red, yellow, green, not rotatable>
red

> <BIOSOLVEIT.TPSA>
29.1

$$$$
Z854669466.****
b8Hydescor01032215413D 1   1.00000     0.00000     0
Hydescorer 1.1.2 b8048283
 39 41  0  0  0  0            999 V2000
   14.8845  -32.9469  -13.0466 C   0  0  0  0  0  0  0  0  0  0  0  0
   14.8257  -34.2803  -13.4455 C   0  0  0  0  0  0  0  0  0  0  0  0
   15.7618  -35.2037  -12.9815 C   0  0  0  0  0  0  0  0  0  0  0  0
   16.7646  -34.7620  -12.1025 C   0  0  0  0  0  0  0  0  0  0  0  0
   16.8342  -33.4271  -11.7014 C   0  0  0  0  0  0  0  0  0  0  0  0
   15.8883  -32.5228  -12.1749 C   0  0  0  0  0  0  0  0  0  0  0  0
   15.9593  -30.8606  -11.6913 Cl  0  0  0  0  0  0  0  0  0  0  0  0
   15.6710  -36.6526  -13.4293 C   0  0  0  0  0  0  0  0  0  0  0  0
   17.7329  -35.7000  -11.6625 N   0  0  0  0  0  0  0  0  0  0  0  0
   18.7684  -36.2287  -12.3905 C   0  0  0  0  0  0  0  0  0  0  0  0
   19.6648  -37.2164  -11.6815 C   0  0  0  0  0  0  0  0  0  0  0  0
   18.9579  -35.8953  -13.5388 O   0  0  0  0  0  0  0  0  0  0  0  0
   20.0143  -38.3452  -12.6803 C   0  0  0  0  0  0  0  0  0  0  0  0
   21.2657  -39.0978  -12.1708 C   0  0  0  0  0  0  0  0  0  0  0  0
   18.8408  -39.3480  -12.6335 C   0  0  0  0  0  0  0  0  0  0  0  0
   18.8978  -40.4783  -13.6202 C   0  0  0  0  0  0  0  0  0  0  0  0
   19.1654  -40.7330  -12.1551 C   0  0  0  0  0  0  0  0  0  0  0  0
   22.5494  -38.3182  -12.1549 C   0  0  0  0  0  0  0  0  0  0  0  0
   21.8360  -38.6339  -10.8607 C   0  0  0  0  0  0  0  0  0  0  0  0
   14.2073  -32.2935  -13.3851 H   0  0  0  0  0  0  0  0  0  0  0  0
   14.1047  -34.5783  -14.0711 H   0  0  0  0  0  0  0  0  0  0  0  0
   17.5564  -33.1234  -11.0800 H   0  0  0  0  0  0  0  0  0  0  0  0
   16.4108  -37.1782  -13.0092 H   0  0  0  0  0  0  0  0  0  0  0  0
   14.7902  -37.0337  -13.1485 H   0  0  0  0  0  0  0  0  0  0  0  0
   15.7525  -36.6995  -14.4248 H   0  0  0  0  0  0  0  0  0  0  0  0
   17.6517  -36.0109  -10.7156 H   0  0  0  0  0  0  0  0  0  0  0  0
   19.1890  -37.5990  -10.8896 H   0  0  0  0  0  0  0  0  0  0  0  0
   20.5014  -36.7595  -11.3792 H   0  0  0  0  0  0  0  0  0  0  0  0
   20.1532  -37.9870  -13.6036 H   0  0  0  0  0  0  0  0  0  0  0  0
   21.3266  -40.0747  -12.3756 H   0  0  0  0  0  0  0  0  0  0  0  0
   17.9374  -38.9849  -12.4052 H   0  0  0  0  0  0  0  0  0  0  0  0
   19.6460  -40.5280  -14.2817 H   0  0  0  0  0  0  0  0  0  0  0  0
   18.0569  -40.8175  -14.0418 H   0  0  0  0  0  0  0  0  0  0  0  0
   18.5018  -41.2413  -11.6061 H   0  0  0  0  0  0  0  0  0  0  0  0
   20.0909  -40.9516  -11.8460 H   0  0  0  0  0  0  0  0  0  0  0  0
   22.5693  -37.3796  -12.4994 H   0  0  0  0  0  0  0  0  0  0  0  0
   23.4133  -38.7720  -12.3737 H   0  0  0  0  0  0  0  0  0  0  0  0
   22.2271  -39.2967  -10.2223 H   0  0  0  0  0  0  0  0  0  0  0  0
   21.3832  -37.9044  -10.3480 H   0  0  0  0  0  0  0  0  0  0  0  0
  1  2  2  0  0  0  0
  1  6  1  0  0  0  0
  1 20  1  0  0  0  0
  2  3  1  0  0  0  0
  2 21  1  0  0  0  0
  3  4  2  0  0  0  0
  3  8  1  0  0  0  0
  4  5  1  0  0  0  0
  4  9  1  0  0  0  0
  5  6  2  0  0  0  0
  5 22  1  0  0  0  0
  6  7  1  0  0  0  0
  8 23  1  0  0  0  0
  8 24  1  0  0  0  0
  8 25  1  0  0  0  0
  9 10  1  0  0  0  0
  9 26  1  0  0  0  0
 10 11  1  0  0  0  0
 10 12  2  0  0  0  0
 11 13  1  0  0  0  0
 11 27  1  0  0  0  0
 11 28  1  0  0  0  0
 13 14  1  0  0  0  0
 13 15  1  0  0  0  0
 13 29  1  0  0  0  0
 14 18  1  0  0  0  0
 14 19  1  0  0  0  0
 14 30  1  0  0  0  0
 15 16  1  0  0  0  0
 15 17  1  0  0  0  0
 15 31  1  0  0  0  0
 16 17  1  0  0  0  0
 16 32  1  0  0  0  0
 16 33  1  0  0  0  0
 17 34  1  0  0  0  0
 17 35  1  0  0  0  0
 18 19  1  0  0  0  0
 18 36  1  0  0  0  0
 18 37  1  0  0  0  0
 19 38  1  0  0  0  0
 19 39  1  0  0  0  0
M  END
> <BIOSOLVEIT.HYDE_ESTIMATED_AFFINITY_LOWER_BOUNDARY [nM]>
1282433.845158

> <BIOSOLVEIT.HYDE_ESTIMATED_AFFINITY_UPPER_BOUNDARY [nM]>
127417384.865421

> <BIOSOLVEIT.HYDE_LIGAND_EFFICIENCY range: ++, +, 0, -, -->
--

> <BIOSOLVEIT.HYDE_LIGAND_LIPOPHILIC_EFFICIENCY range: ++, +, 0, -, -->
--

> <BIOSOLVEIT.INTER_CLASH range: red, yellow, green>
green

> <BIOSOLVEIT.INTRA_CLASH range: red, yellow, green>
green

> <BIOSOLVEIT.LOGP>
4.41322

> <BIOSOLVEIT.MOLECULAR WEIGHT>
277.793

> <BIOSOLVEIT.MOLECULE_CHECKSUM>
LTEwLjgwNzQ7MC41Njg4MDk=

> <BIOSOLVEIT.TORSION_QUALITY range: red, yellow, green, not rotatable>
green

> <BIOSOLVEIT.TPSA>
29.1

$$$$
Z1273128799.****
b8Hydescor01032215413D 1   1.00000     0.00000     0
Hydescorer 1.1.2 b8048283
 32 33  0  0  0  0            999 V2000
   14.5813  -33.6732   -9.6795 C   0  0  0  0  0  0  0  0  0  0  0  0
   14.4264  -35.0551   -9.7667 C   0  0  0  0  0  0  0  0  0  0  0  0
   15.5341  -35.8856   -9.9403 C   0  0  0  0  0  0  0  0  0  0  0  0
   16.8035  -35.2929  -10.0166 C   0  0  0  0  0  0  0  0  0  0  0  0
   16.9730  -33.9145   -9.9422 C   0  0  0  0  0  0  0  0  0  0  0  0
   15.8539  -33.1044   -9.7699 C   0  0  0  0  0  0  0  0  0  0  0  0
   16.0400  -31.3857   -9.6634 Cl  0  0  0  0  0  0  0  0  0  0  0  0
   15.3471  -37.3900  -10.0421 C   0  0  0  0  0  0  0  0  0  0  0  0
   17.9504  -36.0935  -10.1727 N   0  0  0  0  0  0  0  0  0  0  0  0
   18.5666  -36.3739  -11.3513 C   0  0  0  0  0  0  0  0  0  0  0  0
   19.8017  -37.2497  -11.4191 C   0  0  0  0  0  0  0  0  0  0  0  0
   18.0698  -35.8733  -12.3328 O   0  0  0  0  0  0  0  0  0  0  0  0
   19.4830  -38.3919  -12.4062 C   0  0  0  0  0  0  0  0  0  0  0  0
   18.0922  -39.0532  -12.1855 C   0  0  0  0  0  0  0  0  0  0  0  0
   18.8000  -40.4115  -12.4689 C   0  0  0  0  0  0  0  0  0  0  0  0
   20.1266  -39.7450  -11.9955 C   0  0  0  0  0  0  0  0  0  0  0  0
   13.7805  -33.0880   -9.5519 H   0  0  0  0  0  0  0  0  0  0  0  0
   13.5123  -35.4558   -9.7043 H   0  0  0  0  0  0  0  0  0  0  0  0
   17.8855  -33.5112  -10.0113 H   0  0  0  0  0  0  0  0  0  0  0  0
   16.2373  -37.8290  -10.1635 H   0  0  0  0  0  0  0  0  0  0  0  0
   14.9190  -37.7301   -9.2048 H   0  0  0  0  0  0  0  0  0  0  0  0
   14.7620  -37.6009  -10.8252 H   0  0  0  0  0  0  0  0  0  0  0  0
   18.3463  -36.4905   -9.3447 H   0  0  0  0  0  0  0  0  0  0  0  0
   20.0089  -37.6235  -10.5150 H   0  0  0  0  0  0  0  0  0  0  0  0
   20.5829  -36.7187  -11.7473 H   0  0  0  0  0  0  0  0  0  0  0  0
   19.6557  -38.1473  -13.3604 H   0  0  0  0  0  0  0  0  0  0  0  0
   17.3934  -38.7958  -12.8530 H   0  0  0  0  0  0  0  0  0  0  0  0
   17.7223  -38.9563  -11.2615 H   0  0  0  0  0  0  0  0  0  0  0  0
   18.7941  -40.6922  -13.4287 H   0  0  0  0  0  0  0  0  0  0  0  0
   18.4883  -41.1709  -11.8977 H   0  0  0  0  0  0  0  0  0  0  0  0
   20.3195  -39.8396  -11.0188 H   0  0  0  0  0  0  0  0  0  0  0  0
   20.9373  -40.0019  -12.5217 H   0  0  0  0  0  0  0  0  0  0  0  0
  1  2  2  0  0  0  0
  1  6  1  0  0  0  0
  1 17  1  0  0  0  0
  2  3  1  0  0  0  0
  2 18  1  0  0  0  0
  3  4  2  0  0  0  0
  3  8  1  0  0  0  0
  4  5  1  0  0  0  0
  4  9  1  0  0  0  0
  5  6  2  0  0  0  0
  5 19  1  0  0  0  0
  6  7  1  0  0  0  0
  8 20  1  0  0  0  0
  8 21  1  0  0  0  0
  8 22  1  0  0  0  0
  9 10  1  0  0  0  0
  9 23  1  0  0  0  0
 10 11  1  0  0  0  0
 10 12  2  0  0  0  0
 11 13  1  0  0  0  0
 11 24  1  0  0  0  0
 11 25  1  0  0  0  0
 13 14  1  0  0  0  0
 13 16  1  0  0  0  0
 13 26  1  0  0  0  0
 14 15  1  0  0  0  0
 14 27  1  0  0  0  0
 14 28  1  0  0  0  0
 15 16  1  0  0  0  0
 15 29  1  0  0  0  0
 15 30  1  0  0  0  0
 16 31  1  0  0  0  0
 16 32  1  0  0  0  0
M  END
> <BIOSOLVEIT.HYDE_ESTIMATED_AFFINITY_LOWER_BOUNDARY [nM]>
4013297.854949

> <BIOSOLVEIT.HYDE_ESTIMATED_AFFINITY_UPPER_BOUNDARY [nM]>
398744870.384030

> <BIOSOLVEIT.HYDE_LIGAND_EFFICIENCY range: ++, +, 0, -, -->
--

> <BIOSOLVEIT.HYDE_LIGAND_LIPOPHILIC_EFFICIENCY range: ++, +, 0, -, -->
--

> <BIOSOLVEIT.INTER_CLASH range: red, yellow, green>
green

> <BIOSOLVEIT.INTRA_CLASH range: red, yellow, green>
green

> <BIOSOLVEIT.LOGP>
3.77712

> <BIOSOLVEIT.MOLECULAR WEIGHT>
237.728

> <BIOSOLVEIT.MOLECULE_CHECKSUM>
LTcuOTc5MjQ7MC40OTg3MDI=

> <BIOSOLVEIT.TORSION_QUALITY range: red, yellow, green, not rotatable>
yellow

> <BIOSOLVEIT.TPSA>
29.1

$$$$
Z1273128799.****
b8Hydescor01032215413D 1   1.00000     0.00000     0
Hydescorer 1.1.2 b8048283
 32 33  0  0  0  0            999 V2000
   16.3108  -40.3162  -12.7141 C   0  0  0  0  0  0  0  0  0  0  0  0
   17.2733  -39.3177  -12.5799 C   0  0  0  0  0  0  0  0  0  0  0  0
   17.0209  -38.1856  -11.8043 C   0  0  0  0  0  0  0  0  0  0  0  0
   15.7785  -38.0853  -11.1601 C   0  0  0  0  0  0  0  0  0  0  0  0
   14.8038  -39.0682  -11.2932 C   0  0  0  0  0  0  0  0  0  0  0  0
   15.0763  -40.1890  -12.0727 C   0  0  0  0  0  0  0  0  0  0  0  0
   13.8827  -41.4322  -12.2453 Cl  0  0  0  0  0  0  0  0  0  0  0  0
   18.0778  -37.1020  -11.6752 C   0  0  0  0  0  0  0  0  0  0  0  0
   15.4877  -36.9698  -10.3527 N   0  0  0  0  0  0  0  0  0  0  0  0
   14.6956  -35.9224  -10.7036 C   0  0  0  0  0  0  0  0  0  0  0  0
   14.4409  -34.7622   -9.7622 C   0  0  0  0  0  0  0  0  0  0  0  0
   14.2057  -35.9844  -11.8067 O   0  0  0  0  0  0  0  0  0  0  0  0
   14.8251  -33.4777  -10.5257 C   0  0  0  0  0  0  0  0  0  0  0  0
   16.2525  -33.5087  -11.1438 C   0  0  0  0  0  0  0  0  0  0  0  0
   16.3783  -32.0248  -10.6870 C   0  0  0  0  0  0  0  0  0  0  0  0
   15.3187  -32.3407   -9.5889 C   0  0  0  0  0  0  0  0  0  0  0  0
   16.5040  -41.1246  -13.2701 H   0  0  0  0  0  0  0  0  0  0  0  0
   18.1539  -39.4134  -13.0441 H   0  0  0  0  0  0  0  0  0  0  0  0
   13.9199  -38.9714  -10.8356 H   0  0  0  0  0  0  0  0  0  0  0  0
   17.7340  -36.3692  -11.0880 H   0  0  0  0  0  0  0  0  0  0  0  0
   18.9064  -37.4908  -11.2725 H   0  0  0  0  0  0  0  0  0  0  0  0
   18.2888  -36.7326  -12.5803 H   0  0  0  0  0  0  0  0  0  0  0  0
   15.8997  -36.9456   -9.4418 H   0  0  0  0  0  0  0  0  0  0  0  0
   15.0030  -34.8556   -8.9405 H   0  0  0  0  0  0  0  0  0  0  0  0
   13.4752  -34.7337   -9.5041 H   0  0  0  0  0  0  0  0  0  0  0  0
   14.1228  -33.1786  -11.1716 H   0  0  0  0  0  0  0  0  0  0  0  0
   16.2792  -33.6477  -12.1337 H   0  0  0  0  0  0  0  0  0  0  0  0
   16.8889  -34.1404  -10.7012 H   0  0  0  0  0  0  0  0  0  0  0  0
   16.0854  -31.3532  -11.3675 H   0  0  0  0  0  0  0  0  0  0  0  0
   17.2797  -31.7720  -10.3356 H   0  0  0  0  0  0  0  0  0  0  0  0
   15.6970  -32.6495   -8.7162 H   0  0  0  0  0  0  0  0  0  0  0  0
   14.6532  -31.6126   -9.4248 H   0  0  0  0  0  0  0  0  0  0  0  0
  1  2  2  0  0  0  0
  1  6  1  0  0  0  0
  1 17  1  0  0  0  0
  2  3  1  0  0  0  0
  2 18  1  0  0  0  0
  3  4  2  0  0  0  0
  3  8  1  0  0  0  0
  4  5  1  0  0  0  0
  4  9  1  0  0  0  0
  5  6  2  0  0  0  0
  5 19  1  0  0  0  0
  6  7  1  0  0  0  0
  8 20  1  0  0  0  0
  8 21  1  0  0  0  0
  8 22  1  0  0  0  0
  9 10  1  0  0  0  0
  9 23  1  0  0  0  0
 10 11  1  0  0  0  0
 10 12  2  0  0  0  0
 11 13  1  0  0  0  0
 11 24  1  0  0  0  0
 11 25  1  0  0  0  0
 13 14  1  0  0  0  0
 13 16  1  0  0  0  0
 13 26  1  0  0  0  0
 14 15  1  0  0  0  0
 14 27  1  0  0  0  0
 14 28  1  0  0  0  0
 15 16  1  0  0  0  0
 15 29  1  0  0  0  0
 15 30  1  0  0  0  0
 16 31  1  0  0  0  0
 16 32  1  0  0  0  0
M  END
> <BIOSOLVEIT.HYDE_ESTIMATED_AFFINITY_LOWER_BOUNDARY [nM]>
13758736.198804

> <BIOSOLVEIT.HYDE_ESTIMATED_AFFINITY_UPPER_BOUNDARY [nM]>
1367011789.437605

> <BIOSOLVEIT.HYDE_LIGAND_EFFICIENCY range: ++, +, 0, -, -->
--

> <BIOSOLVEIT.HYDE_LIGAND_LIPOPHILIC_EFFICIENCY range: ++, +, 0, -, -->
--

> <BIOSOLVEIT.INTER_CLASH range: red, yellow, green>
green

> <BIOSOLVEIT.INTRA_CLASH range: red, yellow, green>
green

> <BIOSOLVEIT.LOGP>
3.77712

> <BIOSOLVEIT.MOLECULAR WEIGHT>
237.728

> <BIOSOLVEIT.MOLECULE_CHECKSUM>
LTQuOTI1MDE7MC4zMDc4MTM=

> <BIOSOLVEIT.TORSION_QUALITY range: red, yellow, green, not rotatable>
yellow

> <BIOSOLVEIT.TPSA>
29.1

$$$$
Z27065878.****
b8Hydescor01032215413D 1   1.00000     0.00000     0
Hydescorer 1.1.2 b8048283
 38 39  0  0  0  0            999 V2000
   14.9484  -32.3977  -11.3842 C   0  0  0  0  0  0  0  0  0  0  0  0
   14.3586  -33.2379  -12.3241 C   0  0  0  0  0  0  0  0  0  0  0  0
   14.6603  -34.5999  -12.3489 C   0  0  0  0  0  0  0  0  0  0  0  0
   15.5707  -35.1051  -11.4065 C   0  0  0  0  0  0  0  0  0  0  0  0
   16.1630  -34.2708  -10.4565 C   0  0  0  0  0  0  0  0  0  0  0  0
   15.8490  -32.9141  -10.4520 C   0  0  0  0  0  0  0  0  0  0  0  0
   16.5708  -31.8611   -9.2809 Cl  0  0  0  0  0  0  0  0  0  0  0  0
   14.0087  -35.4935  -13.3907 C   0  0  0  0  0  0  0  0  0  0  0  0
   15.8477  -36.4965  -11.4224 N   0  0  0  0  0  0  0  0  0  0  0  0
   16.7222  -37.1642  -12.2382 C   0  0  0  0  0  0  0  0  0  0  0  0
   16.8205  -38.6597  -12.0378 C   0  0  0  0  0  0  0  0  0  0  0  0
   17.3465  -36.5842  -13.1002 O   0  0  0  0  0  0  0  0  0  0  0  0
   16.4224  -39.3172  -13.3812 C   0  0  0  0  0  0  0  0  0  0  0  0
   15.3806  -40.4101  -13.0867 C   0  0  0  0  0  0  0  0  0  0  0  0
   15.7552  -41.3732  -11.9576 C   0  0  0  0  0  0  0  0  0  0  0  0
   14.4244  -41.9925  -11.5182 C   0  0  0  0  0  0  0  0  0  0  0  0
   13.3317  -41.0259  -11.9883 C   0  0  0  0  0  0  0  0  0  0  0  0
   14.0734  -39.8183  -12.5625 C   0  0  0  0  0  0  0  0  0  0  0  0
   14.7263  -31.4227  -11.3770 H   0  0  0  0  0  0  0  0  0  0  0  0
   13.7124  -32.8617  -12.9881 H   0  0  0  0  0  0  0  0  0  0  0  0
   16.8056  -34.6433   -9.7868 H   0  0  0  0  0  0  0  0  0  0  0  0
   14.3296  -36.4331  -13.2715 H   0  0  0  0  0  0  0  0  0  0  0  0
   13.0152  -35.4641  -13.2807 H   0  0  0  0  0  0  0  0  0  0  0  0
   14.2524  -35.1714  -14.3055 H   0  0  0  0  0  0  0  0  0  0  0  0
   15.3462  -37.0545  -10.7613 H   0  0  0  0  0  0  0  0  0  0  0  0
   16.1963  -38.9518  -11.3131 H   0  0  0  0  0  0  0  0  0  0  0  0
   17.7564  -38.9138  -11.7941 H   0  0  0  0  0  0  0  0  0  0  0  0
   17.2281  -39.7238  -13.8117 H   0  0  0  0  0  0  0  0  0  0  0  0
   16.0293  -38.6298  -13.9919 H   0  0  0  0  0  0  0  0  0  0  0  0
   15.1992  -40.9303  -13.9213 H   0  0  0  0  0  0  0  0  0  0  0  0
   16.1818  -40.8795  -11.1998 H   0  0  0  0  0  0  0  0  0  0  0  0
   16.3804  -42.0796  -12.2894 H   0  0  0  0  0  0  0  0  0  0  0  0
   14.3980  -42.0891  -10.5232 H   0  0  0  0  0  0  0  0  0  0  0  0
   14.3013  -42.8891  -11.9435 H   0  0  0  0  0  0  0  0  0  0  0  0
   12.7558  -40.7489  -11.2192 H   0  0  0  0  0  0  0  0  0  0  0  0
   12.7649  -41.4548  -12.6917 H   0  0  0  0  0  0  0  0  0  0  0  0
   13.5499  -39.3980  -13.3037 H   0  0  0  0  0  0  0  0  0  0  0  0
   14.2501  -39.1375  -11.8516 H   0  0  0  0  0  0  0  0  0  0  0  0
  1  2  2  0  0  0  0
  1  6  1  0  0  0  0
  1 19  1  0  0  0  0
  2  3  1  0  0  0  0
  2 20  1  0  0  0  0
  3  4  2  0  0  0  0
  3  8  1  0  0  0  0
  4  5  1  0  0  0  0
  4  9  1  0  0  0  0
  5  6  2  0  0  0  0
  5 21  1  0  0  0  0
  6  7  1  0  0  0  0
  8 22  1  0  0  0  0
  8 23  1  0  0  0  0
  8 24  1  0  0  0  0
  9 10  1  0  0  0  0
  9 25  1  0  0  0  0
 10 11  1  0  0  0  0
 10 12  2  0  0  0  0
 11 13  1  0  0  0  0
 11 26  1  0  0  0  0
 11 27  1  0  0  0  0
 13 14  1  0  0  0  0
 13 28  1  0  0  0  0
 13 29  1  0  0  0  0
 14 15  1  0  0  0  0
 14 18  1  0  0  0  0
 14 30  1  0  0  0  0
 15 16  1  0  0  0  0
 15 31  1  0  0  0  0
 15 32  1  0  0  0  0
 16 17  1  0  0  0  0
 16 33  1  0  0  0  0
 16 34  1  0  0  0  0
 17 18  1  0  0  0  0
 17 35  1  0  0  0  0
 17 36  1  0  0  0  0
 18 37  1  0  0  0  0
 18 38  1  0  0  0  0
M  END
> <BIOSOLVEIT.HYDE_ESTIMATED_AFFINITY_LOWER_BOUNDARY [nM]>
4025751.776256

> <BIOSOLVEIT.HYDE_ESTIMATED_AFFINITY_UPPER_BOUNDARY [nM]>
399982241.099217

> <BIOSOLVEIT.HYDE_LIGAND_EFFICIENCY range: ++, +, 0, -, -->
--

> <BIOSOLVEIT.HYDE_LIGAND_LIPOPHILIC_EFFICIENCY range: ++, +, 0, -, -->
--

> <BIOSOLVEIT.INTER_CLASH range: red, yellow, green>
green

> <BIOSOLVEIT.INTRA_CLASH range: red, yellow, green>
green

> <BIOSOLVEIT.LOGP>
4.55732

> <BIOSOLVEIT.MOLECULAR WEIGHT>
265.782

> <BIOSOLVEIT.MOLECULE_CHECKSUM>
LTcuOTcxNTY7MC40NDI4NjQ=

> <BIOSOLVEIT.TORSION_QUALITY range: red, yellow, green, not rotatable>
yellow

> <BIOSOLVEIT.TPSA>
29.1

$$$$
Z27065878.****
b8Hydescor01032215413D 1   1.00000     0.00000     0
Hydescorer 1.1.2 b8048283
 38 39  0  0  0  0            999 V2000
   16.2882  -40.3151  -12.5793 C   0  0  0  0  0  0  0  0  0  0  0  0
   17.3780  -39.4510  -12.5234 C   0  0  0  0  0  0  0  0  0  0  0  0
   17.2849  -38.2315  -11.8522 C   0  0  0  0  0  0  0  0  0  0  0  0
   16.0695  -37.8939  -11.2346 C   0  0  0  0  0  0  0  0  0  0  0  0
   14.9727  -38.7566  -11.2811 C   0  0  0  0  0  0  0  0  0  0  0  0
   15.0877  -39.9678  -11.9589 C   0  0  0  0  0  0  0  0  0  0  0  0
   13.7400  -41.0542  -12.0273 Cl  0  0  0  0  0  0  0  0  0  0  0  0
   18.4870  -37.3032  -11.8132 C   0  0  0  0  0  0  0  0  0  0  0  0
   15.9953  -36.6645  -10.5303 N   0  0  0  0  0  0  0  0  0  0  0  0
   15.5407  -35.4604  -10.9987 C   0  0  0  0  0  0  0  0  0  0  0  0
   15.5736  -34.3042  -10.0247 C   0  0  0  0  0  0  0  0  0  0  0  0
   15.1749  -35.3291  -12.1467 O   0  0  0  0  0  0  0  0  0  0  0  0
   15.0296  -33.0681  -10.7804 C   0  0  0  0  0  0  0  0  0  0  0  0
   16.1480  -32.0133  -10.8362 C   0  0  0  0  0  0  0  0  0  0  0  0
   15.8026  -30.7454  -11.6211 C   0  0  0  0  0  0  0  0  0  0  0  0
   16.7965  -29.6940  -11.1172 C   0  0  0  0  0  0  0  0  0  0  0  0
   17.2836  -30.1917   -9.7519 C   0  0  0  0  0  0  0  0  0  0  0  0
   16.4556  -31.4422   -9.4532 C   0  0  0  0  0  0  0  0  0  0  0  0
   16.3658  -41.1859  -13.0648 H   0  0  0  0  0  0  0  0  0  0  0  0
   18.2360  -39.7069  -12.9687 H   0  0  0  0  0  0  0  0  0  0  0  0
   14.1142  -38.5076  -10.8327 H   0  0  0  0  0  0  0  0  0  0  0  0
   18.2550  -36.4788  -11.2967 H   0  0  0  0  0  0  0  0  0  0  0  0
   19.2536  -37.7688  -11.3709 H   0  0  0  0  0  0  0  0  0  0  0  0
   18.7437  -37.0508  -12.7461 H   0  0  0  0  0  0  0  0  0  0  0  0
   16.3117  -36.6788   -9.5818 H   0  0  0  0  0  0  0  0  0  0  0  0
   16.5114  -34.1367   -9.7206 H   0  0  0  0  0  0  0  0  0  0  0  0
   14.9971  -34.5047   -9.2326 H   0  0  0  0  0  0  0  0  0  0  0  0
   14.2370  -32.6967  -10.2969 H   0  0  0  0  0  0  0  0  0  0  0  0
   14.7623  -33.3283  -11.7082 H   0  0  0  0  0  0  0  0  0  0  0  0
   16.9754  -32.4256  -11.2175 H   0  0  0  0  0  0  0  0  0  0  0  0
   14.8626  -30.4601  -11.4346 H   0  0  0  0  0  0  0  0  0  0  0  0
   15.9165  -30.8964  -12.6031 H   0  0  0  0  0  0  0  0  0  0  0  0
   16.3453  -28.8066  -11.0225 H   0  0  0  0  0  0  0  0  0  0  0  0
   17.5655  -29.6110  -11.7511 H   0  0  0  0  0  0  0  0  0  0  0  0
   17.1300  -29.4953   -9.0509 H   0  0  0  0  0  0  0  0  0  0  0  0
   18.2570  -30.4179   -9.7893 H   0  0  0  0  0  0  0  0  0  0  0  0
   16.9803  -32.0949   -8.9067 H   0  0  0  0  0  0  0  0  0  0  0  0
   15.6129  -31.2046   -8.9702 H   0  0  0  0  0  0  0  0  0  0  0  0
  1  2  2  0  0  0  0
  1  6  1  0  0  0  0
  1 19  1  0  0  0  0
  2  3  1  0  0  0  0
  2 20  1  0  0  0  0
  3  4  2  0  0  0  0
  3  8  1  0  0  0  0
  4  5  1  0  0  0  0
  4  9  1  0  0  0  0
  5  6  2  0  0  0  0
  5 21  1  0  0  0  0
  6  7  1  0  0  0  0
  8 22  1  0  0  0  0
  8 23  1  0  0  0  0
  8 24  1  0  0  0  0
  9 10  1  0  0  0  0
  9 25  1  0  0  0  0
 10 11  1  0  0  0  0
 10 12  2  0  0  0  0
 11 13  1  0  0  0  0
 11 26  1  0  0  0  0
 11 27  1  0  0  0  0
 13 14  1  0  0  0  0
 13 28  1  0  0  0  0
 13 29  1  0  0  0  0
 14 15  1  0  0  0  0
 14 18  1  0  0  0  0
 14 30  1  0  0  0  0
 15 16  1  0  0  0  0
 15 31  1  0  0  0  0
 15 32  1  0  0  0  0
 16 17  1  0  0  0  0
 16 33  1  0  0  0  0
 16 34  1  0  0  0  0
 17 18  1  0  0  0  0
 17 35  1  0  0  0  0
 17 36  1  0  0  0  0
 18 37  1  0  0  0  0
 18 38  1  0  0  0  0
M  END
> <BIOSOLVEIT.HYDE_ESTIMATED_AFFINITY_LOWER_BOUNDARY [nM]>
99154.850339

> <BIOSOLVEIT.HYDE_ESTIMATED_AFFINITY_UPPER_BOUNDARY [nM]>
9851620.631024

> <BIOSOLVEIT.HYDE_LIGAND_EFFICIENCY range: ++, +, 0, -, -->
-

> <BIOSOLVEIT.HYDE_LIGAND_LIPOPHILIC_EFFICIENCY range: ++, +, 0, -, -->
--

> <BIOSOLVEIT.INTER_CLASH range: red, yellow, green>
green

> <BIOSOLVEIT.INTRA_CLASH range: red, yellow, green>
green

> <BIOSOLVEIT.LOGP>
4.55732

> <BIOSOLVEIT.MOLECULAR WEIGHT>
265.782

> <BIOSOLVEIT.MOLECULE_CHECKSUM>
LTE3LjE1MzE7MC45NTI5NDk=

> <BIOSOLVEIT.TORSION_QUALITY range: red, yellow, green, not rotatable>
red

> <BIOSOLVEIT.TPSA>
29.1

$$$$
Z27065878.****
b8Hydescor01032215413D 1   1.00000     0.00000     0
Hydescorer 1.1.2 b8048283
 38 39  0  0  0  0            999 V2000
   15.8426  -33.3383  -10.9134 C   0  0  0  0  0  0  0  0  0  0  0  0
   16.7299  -33.8341   -9.9625 C   0  0  0  0  0  0  0  0  0  0  0  0
   17.3014  -35.0978  -10.1137 C   0  0  0  0  0  0  0  0  0  0  0  0
   16.9631  -35.8589  -11.2445 C   0  0  0  0  0  0  0  0  0  0  0  0
   16.0780  -35.3676  -12.2062 C   0  0  0  0  0  0  0  0  0  0  0  0
   15.5176  -34.1044  -12.0333 C   0  0  0  0  0  0  0  0  0  0  0  0
   14.4188  -33.4744  -13.2152 Cl  0  0  0  0  0  0  0  0  0  0  0  0
   18.2607  -35.6184   -9.0569 C   0  0  0  0  0  0  0  0  0  0  0  0
   17.5725  -37.1302  -11.4027 N   0  0  0  0  0  0  0  0  0  0  0  0
   18.6358  -37.4524  -12.2036 C   0  0  0  0  0  0  0  0  0  0  0  0
   19.0835  -38.8965  -12.1786 C   0  0  0  0  0  0  0  0  0  0  0  0
   19.1548  -36.6262  -12.9229 O   0  0  0  0  0  0  0  0  0  0  0  0
   18.4567  -39.5798  -13.4177 C   0  0  0  0  0  0  0  0  0  0  0  0
   17.2528  -40.4124  -12.9448 C   0  0  0  0  0  0  0  0  0  0  0  0
   16.3592  -40.9512  -14.0646 C   0  0  0  0  0  0  0  0  0  0  0  0
   15.5934  -42.1140  -13.4249 C   0  0  0  0  0  0  0  0  0  0  0  0
   16.4160  -42.5420  -12.2044 C   0  0  0  0  0  0  0  0  0  0  0  0
   17.6937  -41.7036  -12.2577 C   0  0  0  0  0  0  0  0  0  0  0  0
   15.4376  -32.4319  -10.7937 H   0  0  0  0  0  0  0  0  0  0  0  0
   16.9600  -33.2791   -9.1631 H   0  0  0  0  0  0  0  0  0  0  0  0
   15.8491  -35.9166  -13.0100 H   0  0  0  0  0  0  0  0  0  0  0  0
   18.5774  -36.5312   -9.3147 H   0  0  0  0  0  0  0  0  0  0  0  0
   19.0445  -35.0015   -8.9852 H   0  0  0  0  0  0  0  0  0  0  0  0
   17.7917  -35.6651   -8.1750 H   0  0  0  0  0  0  0  0  0  0  0  0
   17.1801  -37.8780  -10.8671 H   0  0  0  0  0  0  0  0  0  0  0  0
   18.7646  -39.3414  -11.3417 H   0  0  0  0  0  0  0  0  0  0  0  0
   20.0812  -38.9486  -12.2244 H   0  0  0  0  0  0  0  0  0  0  0  0
   19.1309  -40.1757  -13.8538 H   0  0  0  0  0  0  0  0  0  0  0  0
   18.1535  -38.8857  -14.0707 H   0  0  0  0  0  0  0  0  0  0  0  0
   16.7014  -39.8699  -12.3111 H   0  0  0  0  0  0  0  0  0  0  0  0
   16.9122  -41.2733  -14.8331 H   0  0  0  0  0  0  0  0  0  0  0  0
   15.7267  -40.2445  -14.3821 H   0  0  0  0  0  0  0  0  0  0  0  0
   15.5105  -42.8725  -14.0711 H   0  0  0  0  0  0  0  0  0  0  0  0
   14.6818  -41.8157  -13.1420 H   0  0  0  0  0  0  0  0  0  0  0  0
   16.6351  -43.5165  -12.2550 H   0  0  0  0  0  0  0  0  0  0  0  0
   15.9117  -42.3571  -11.3609 H   0  0  0  0  0  0  0  0  0  0  0  0
   18.0369  -41.5181  -11.3370 H   0  0  0  0  0  0  0  0  0  0  0  0
   18.4020  -42.1669  -12.7905 H   0  0  0  0  0  0  0  0  0  0  0  0
  1  2  2  0  0  0  0
  1  6  1  0  0  0  0
  1 19  1  0  0  0  0
  2  3  1  0  0  0  0
  2 20  1  0  0  0  0
  3  4  2  0  0  0  0
  3  8  1  0  0  0  0
  4  5  1  0  0  0  0
  4  9  1  0  0  0  0
  5  6  2  0  0  0  0
  5 21  1  0  0  0  0
  6  7  1  0  0  0  0
  8 22  1  0  0  0  0
  8 23  1  0  0  0  0
  8 24  1  0  0  0  0
  9 10  1  0  0  0  0
  9 25  1  0  0  0  0
 10 11  1  0  0  0  0
 10 12  2  0  0  0  0
 11 13  1  0  0  0  0
 11 26  1  0  0  0  0
 11 27  1  0  0  0  0
 13 14  1  0  0  0  0
 13 28  1  0  0  0  0
 13 29  1  0  0  0  0
 14 15  1  0  0  0  0
 14 18  1  0  0  0  0
 14 30  1  0  0  0  0
 15 16  1  0  0  0  0
 15 31  1  0  0  0  0
 15 32  1  0  0  0  0
 16 17  1  0  0  0  0
 16 33  1  0  0  0  0
 16 34  1  0  0  0  0
 17 18  1  0  0  0  0
 17 35  1  0  0  0  0
 17 36  1  0  0  0  0
 18 37  1  0  0  0  0
 18 38  1  0  0  0  0
M  END
> <BIOSOLVEIT.HYDE_ESTIMATED_AFFINITY_LOWER_BOUNDARY [nM]>
61451421.467696

> <BIOSOLVEIT.HYDE_ESTIMATED_AFFINITY_UPPER_BOUNDARY [nM]>
6105562052.373610

> <BIOSOLVEIT.HYDE_LIGAND_EFFICIENCY range: ++, +, 0, -, -->
--

> <BIOSOLVEIT.HYDE_LIGAND_LIPOPHILIC_EFFICIENCY range: ++, +, 0, -, -->
--

> <BIOSOLVEIT.INTER_CLASH range: red, yellow, green>
green

> <BIOSOLVEIT.INTRA_CLASH range: red, yellow, green>
green

> <BIOSOLVEIT.LOGP>
4.55732

> <BIOSOLVEIT.MOLECULAR WEIGHT>
265.782

> <BIOSOLVEIT.MOLECULE_CHECKSUM>
LTEuMjE1MDc7MC4wNjc1MDM5

> <BIOSOLVEIT.TORSION_QUALITY range: red, yellow, green, not rotatable>
red

> <BIOSOLVEIT.TPSA>
29.1

$$$$
Z27065878.****
b8Hydescor01032215413D 1   1.00000     0.00000     0
Hydescorer 1.1.2 b8048283
 38 39  0  0  0  0            999 V2000
   21.5314  -39.6346  -12.3562 C   0  0  0  0  0  0  0  0  0  0  0  0
   20.2202  -40.0249  -12.6122 C   0  0  0  0  0  0  0  0  0  0  0  0
   19.1522  -39.1898  -12.2825 C   0  0  0  0  0  0  0  0  0  0  0  0
   19.4275  -37.9480  -11.6872 C   0  0  0  0  0  0  0  0  0  0  0  0
   20.7399  -37.5458  -11.4313 C   0  0  0  0  0  0  0  0  0  0  0  0
   21.7901  -38.3968  -11.7667 C   0  0  0  0  0  0  0  0  0  0  0  0
   23.4263  -37.9169  -11.4601 Cl  0  0  0  0  0  0  0  0  0  0  0  0
   17.7301  -39.6437  -12.5654 C   0  0  0  0  0  0  0  0  0  0  0  0
   18.3357  -37.0947  -11.3827 N   0  0  0  0  0  0  0  0  0  0  0  0
   17.9456  -35.9665  -12.0541 C   0  0  0  0  0  0  0  0  0  0  0  0
   16.7360  -35.2428  -11.5069 C   0  0  0  0  0  0  0  0  0  0  0  0
   18.5695  -35.5545  -13.0081 O   0  0  0  0  0  0  0  0  0  0  0  0
   16.5730  -33.9504  -12.3427 C   0  0  0  0  0  0  0  0  0  0  0  0
   16.8224  -32.7485  -11.4154 C   0  0  0  0  0  0  0  0  0  0  0  0
   16.1619  -31.4411  -11.8596 C   0  0  0  0  0  0  0  0  0  0  0  0
   16.1057  -30.5840  -10.5909 C   0  0  0  0  0  0  0  0  0  0  0  0
   16.2139  -31.5608   -9.4148 C   0  0  0  0  0  0  0  0  0  0  0  0
   16.1930  -32.9566  -10.0391 C   0  0  0  0  0  0  0  0  0  0  0  0
   22.2889  -40.2420  -12.5952 H   0  0  0  0  0  0  0  0  0  0  0  0
   20.0418  -40.9127  -13.0366 H   0  0  0  0  0  0  0  0  0  0  0  0
   20.9236  -36.6568  -11.0120 H   0  0  0  0  0  0  0  0  0  0  0  0
   17.0893  -38.9345  -12.2715 H   0  0  0  0  0  0  0  0  0  0  0  0
   17.6209  -39.8062  -13.5460 H   0  0  0  0  0  0  0  0  0  0  0  0
   17.5442  -40.4891  -12.0646 H   0  0  0  0  0  0  0  0  0  0  0  0
   17.7872  -37.3463  -10.5853 H   0  0  0  0  0  0  0  0  0  0  0  0
   16.8779  -35.0144  -10.5438 H   0  0  0  0  0  0  0  0  0  0  0  0
   15.9216  -35.8161  -11.5970 H   0  0  0  0  0  0  0  0  0  0  0  0
   15.6470  -33.9033  -12.7174 H   0  0  0  0  0  0  0  0  0  0  0  0
   17.2362  -33.9447  -13.0912 H   0  0  0  0  0  0  0  0  0  0  0  0
   17.8069  -32.6059  -11.3130 H   0  0  0  0  0  0  0  0  0  0  0  0
   15.2414  -31.6124  -12.2106 H   0  0  0  0  0  0  0  0  0  0  0  0
   16.7093  -30.9912  -12.5652 H   0  0  0  0  0  0  0  0  0  0  0  0
   15.2411  -30.0832  -10.5481 H   0  0  0  0  0  0  0  0  0  0  0  0
   16.8672  -29.9360  -10.5755 H   0  0  0  0  0  0  0  0  0  0  0  0
   15.4400  -31.4450   -8.7921 H   0  0  0  0  0  0  0  0  0  0  0  0
   17.0680  -31.4138   -8.9160 H   0  0  0  0  0  0  0  0  0  0  0  0
   16.7320  -33.5988   -9.4941 H   0  0  0  0  0  0  0  0  0  0  0  0
   15.2560  -33.2954  -10.1233 H   0  0  0  0  0  0  0  0  0  0  0  0
  1  2  2  0  0  0  0
  1  6  1  0  0  0  0
  1 19  1  0  0  0  0
  2  3  1  0  0  0  0
  2 20  1  0  0  0  0
  3  4  2  0  0  0  0
  3  8  1  0  0  0  0
  4  5  1  0  0  0  0
  4  9  1  0  0  0  0
  5  6  2  0  0  0  0
  5 21  1  0  0  0  0
  6  7  1  0  0  0  0
  8 22  1  0  0  0  0
  8 23  1  0  0  0  0
  8 24  1  0  0  0  0
  9 10  1  0  0  0  0
  9 25  1  0  0  0  0
 10 11  1  0  0  0  0
 10 12  2  0  0  0  0
 11 13  1  0  0  0  0
 11 26  1  0  0  0  0
 11 27  1  0  0  0  0
 13 14  1  0  0  0  0
 13 28  1  0  0  0  0
 13 29  1  0  0  0  0
 14 15  1  0  0  0  0
 14 18  1  0  0  0  0
 14 30  1  0  0  0  0
 15 16  1  0  0  0  0
 15 31  1  0  0  0  0
 15 32  1  0  0  0  0
 16 17  1  0  0  0  0
 16 33  1  0  0  0  0
 16 34  1  0  0  0  0
 17 18  1  0  0  0  0
 17 35  1  0  0  0  0
 17 36  1  0  0  0  0
 18 37  1  0  0  0  0
 18 38  1  0  0  0  0
M  END
> <BIOSOLVEIT.HYDE_ESTIMATED_AFFINITY_LOWER_BOUNDARY [nM]>
724678.685166

> <BIOSOLVEIT.HYDE_ESTIMATED_AFFINITY_UPPER_BOUNDARY [nM]>
72001112.010748

> <BIOSOLVEIT.HYDE_LIGAND_EFFICIENCY range: ++, +, 0, -, -->
--

> <BIOSOLVEIT.HYDE_LIGAND_LIPOPHILIC_EFFICIENCY range: ++, +, 0, -, -->
--

> <BIOSOLVEIT.INTER_CLASH range: red, yellow, green>
green

> <BIOSOLVEIT.INTRA_CLASH range: red, yellow, green>
green

> <BIOSOLVEIT.LOGP>
4.55732

> <BIOSOLVEIT.MOLECULAR WEIGHT>
265.782

> <BIOSOLVEIT.MOLECULE_CHECKSUM>
LTEyLjIyMjM7MC42NzkwMTg=

> <BIOSOLVEIT.TORSION_QUALITY range: red, yellow, green, not rotatable>
yellow

> <BIOSOLVEIT.TPSA>
29.1

$$$$
Z410195728.****
b8Hydescor01032215413D 1   1.00000     0.00000     0
Hydescorer 1.1.2 b8048283
 37 38  0  0  0  0            999 V2000
   14.5644  -33.8807   -9.6598 C   0  0  0  0  0  0  0  0  0  0  0  0
   14.5613  -35.2732   -9.6390 C   0  0  0  0  0  0  0  0  0  0  0  0
   15.7434  -35.9903   -9.8250 C   0  0  0  0  0  0  0  0  0  0  0  0
   16.9370  -35.2804  -10.0339 C   0  0  0  0  0  0  0  0  0  0  0  0
   16.9482  -33.8843  -10.0609 C   0  0  0  0  0  0  0  0  0  0  0  0
   15.7583  -33.1896   -9.8709 C   0  0  0  0  0  0  0  0  0  0  0  0
   15.7507  -31.4564   -9.9031 Cl  0  0  0  0  0  0  0  0  0  0  0  0
   15.7113  -37.5093   -9.7909 C   0  0  0  0  0  0  0  0  0  0  0  0
   18.1291  -36.0141  -10.2516 N   0  0  0  0  0  0  0  0  0  0  0  0
   18.6153  -36.4350  -11.4534 C   0  0  0  0  0  0  0  0  0  0  0  0
   19.7814  -37.1168  -11.3366 N   0  0  0  0  0  0  0  0  0  0  0  0
   18.0732  -36.2227  -12.5288 O   0  0  0  0  0  0  0  0  0  0  0  0
   20.4795  -37.6602  -12.5050 C   0  0  0  0  0  0  0  0  0  0  0  0
   20.7327  -39.1468  -12.2058 C   0  0  0  0  0  0  0  0  0  0  0  0
   19.4650  -39.9790  -11.9842 C   0  0  0  0  0  0  0  0  0  0  0  0
   19.8906  -41.4284  -12.2376 C   0  0  0  0  0  0  0  0  0  0  0  0
   21.2025  -41.3529  -13.0276 C   0  0  0  0  0  0  0  0  0  0  0  0
   21.3773  -39.8771  -13.3845 C   0  0  0  0  0  0  0  0  0  0  0  0
   13.7117  -33.3763   -9.5236 H   0  0  0  0  0  0  0  0  0  0  0  0
   13.7030  -35.7640   -9.4892 H   0  0  0  0  0  0  0  0  0  0  0  0
   17.8032  -33.3890  -10.2153 H   0  0  0  0  0  0  0  0  0  0  0  0
   16.6337  -37.8656   -9.9399 H   0  0  0  0  0  0  0  0  0  0  0  0
   15.3754  -37.8157   -8.9002 H   0  0  0  0  0  0  0  0  0  0  0  0
   15.1036  -37.8462  -10.5101 H   0  0  0  0  0  0  0  0  0  0  0  0
   18.6681  -36.2468   -9.4421 H   0  0  0  0  0  0  0  0  0  0  0  0
   20.1761  -37.2527  -10.4279 H   0  0  0  0  0  0  0  0  0  0  0  0
   21.3470  -37.1824  -12.6428 H   0  0  0  0  0  0  0  0  0  0  0  0
   19.9121  -37.5636  -13.3228 H   0  0  0  0  0  0  0  0  0  0  0  0
   21.3248  -39.2264  -11.4038 H   0  0  0  0  0  0  0  0  0  0  0  0
   18.7489  -39.7059  -12.6266 H   0  0  0  0  0  0  0  0  0  0  0  0
   19.1322  -39.8694  -11.0477 H   0  0  0  0  0  0  0  0  0  0  0  0
   19.1922  -41.9075  -12.7692 H   0  0  0  0  0  0  0  0  0  0  0  0
   20.0345  -41.9047  -11.3702 H   0  0  0  0  0  0  0  0  0  0  0  0
   21.1441  -41.9087  -13.8568 H   0  0  0  0  0  0  0  0  0  0  0  0
   21.9673  -41.6700  -12.4668 H   0  0  0  0  0  0  0  0  0  0  0  0
   22.3456  -39.6410  -13.4651 H   0  0  0  0  0  0  0  0  0  0  0  0
   20.9084  -39.6583  -14.2404 H   0  0  0  0  0  0  0  0  0  0  0  0
  1  2  2  0  0  0  0
  1  6  1  0  0  0  0
  1 19  1  0  0  0  0
  2  3  1  0  0  0  0
  2 20  1  0  0  0  0
  3  4  2  0  0  0  0
  3  8  1  0  0  0  0
  4  5  1  0  0  0  0
  4  9  1  0  0  0  0
  5  6  2  0  0  0  0
  5 21  1  0  0  0  0
  6  7  1  0  0  0  0
  8 22  1  0  0  0  0
  8 23  1  0  0  0  0
  8 24  1  0  0  0  0
  9 10  1  0  0  0  0
  9 25  1  0  0  0  0
 10 11  1  0  0  0  0
 10 12  2  0  0  0  0
 11 13  1  0  0  0  0
 11 26  1  0  0  0  0
 13 14  1  0  0  0  0
 13 27  1  0  0  0  0
 13 28  1  0  0  0  0
 14 15  1  0  0  0  0
 14 18  1  0  0  0  0
 14 29  1  0  0  0  0
 15 16  1  0  0  0  0
 15 30  1  0  0  0  0
 15 31  1  0  0  0  0
 16 17  1  0  0  0  0
 16 32  1  0  0  0  0
 16 33  1  0  0  0  0
 17 18  1  0  0  0  0
 17 34  1  0  0  0  0
 17 35  1  0  0  0  0
 18 36  1  0  0  0  0
 18 37  1  0  0  0  0
M  END
> <BIOSOLVEIT.HYDE_ESTIMATED_AFFINITY_LOWER_BOUNDARY [nM]>
5080250.430601

> <BIOSOLVEIT.HYDE_ESTIMATED_AFFINITY_UPPER_BOUNDARY [nM]>
504752917.097926

> <BIOSOLVEIT.HYDE_LIGAND_EFFICIENCY range: ++, +, 0, -, -->
--

> <BIOSOLVEIT.HYDE_LIGAND_LIPOPHILIC_EFFICIENCY range: ++, +, 0, -, -->
--

> <BIOSOLVEIT.INTER_CLASH range: red, yellow, green>
green

> <BIOSOLVEIT.INTRA_CLASH range: red, yellow, green>
green

> <BIOSOLVEIT.LOGP>
3.96012

> <BIOSOLVEIT.MOLECULAR WEIGHT>
266.77

> <BIOSOLVEIT.MOLECULE_CHECKSUM>
LTcuMzk0ODM7MC40MTA4MjQ=

> <BIOSOLVEIT.TORSION_QUALITY range: red, yellow, green, not rotatable>
green

> <BIOSOLVEIT.TPSA>
41.13

$$$$
Z410195728.****
b8Hydescor01032215413D 1   1.00000     0.00000     0
Hydescorer 1.1.2 b8048283
 37 38  0  0  0  0            999 V2000
   16.1824  -40.3227  -12.8920 C   0  0  0  0  0  0  0  0  0  0  0  0
   17.2279  -39.4091  -12.7834 C   0  0  0  0  0  0  0  0  0  0  0  0
   17.1301  -38.3148  -11.9237 C   0  0  0  0  0  0  0  0  0  0  0  0
   15.9563  -38.1521  -11.1699 C   0  0  0  0  0  0  0  0  0  0  0  0
   14.9015  -39.0610  -11.2762 C   0  0  0  0  0  0  0  0  0  0  0  0
   15.0214  -40.1462  -12.1379 C   0  0  0  0  0  0  0  0  0  0  0  0
   13.7223  -41.2843  -12.2860 Cl  0  0  0  0  0  0  0  0  0  0  0  0
   18.2891  -37.3374  -11.8207 C   0  0  0  0  0  0  0  0  0  0  0  0
   15.8509  -37.0230  -10.3207 N   0  0  0  0  0  0  0  0  0  0  0  0
   15.2056  -35.8552  -10.5995 C   0  0  0  0  0  0  0  0  0  0  0  0
   15.2810  -34.9602   -9.5838 N   0  0  0  0  0  0  0  0  0  0  0  0
   14.6134  -35.6274  -11.6447 O   0  0  0  0  0  0  0  0  0  0  0  0
   14.6560  -33.6376   -9.6711 C   0  0  0  0  0  0  0  0  0  0  0  0
   15.7122  -32.6982  -10.2758 C   0  0  0  0  0  0  0  0  0  0  0  0
   15.2122  -31.8426  -11.4447 C   0  0  0  0  0  0  0  0  0  0  0  0
   16.1908  -30.6671  -11.5253 C   0  0  0  0  0  0  0  0  0  0  0  0
   16.9082  -30.6195  -10.1710 C   0  0  0  0  0  0  0  0  0  0  0  0
   16.1743  -31.6273   -9.2870 C   0  0  0  0  0  0  0  0  0  0  0  0
   16.2635  -41.1048  -13.5100 H   0  0  0  0  0  0  0  0  0  0  0  0
   18.0570  -39.5389  -13.3273 H   0  0  0  0  0  0  0  0  0  0  0  0
   14.0684  -38.9329  -10.7383 H   0  0  0  0  0  0  0  0  0  0  0  0
   18.0601  -36.6165  -11.1665 H   0  0  0  0  0  0  0  0  0  0  0  0
   19.1070  -37.8219  -11.5101 H   0  0  0  0  0  0  0  0  0  0  0  0
   18.4631  -36.9308  -12.7175 H   0  0  0  0  0  0  0  0  0  0  0  0
   16.2946  -37.0894   -9.4270 H   0  0  0  0  0  0  0  0  0  0  0  0
   15.7768  -35.2097   -8.7520 H   0  0  0  0  0  0  0  0  0  0  0  0
   14.3908  -33.3196   -8.7608 H   0  0  0  0  0  0  0  0  0  0  0  0
   13.8484  -33.6747  -10.2597 H   0  0  0  0  0  0  0  0  0  0  0  0
   16.5011  -33.2359  -10.5734 H   0  0  0  0  0  0  0  0  0  0  0  0
   14.2839  -31.5152  -11.2683 H   0  0  0  0  0  0  0  0  0  0  0  0
   15.2243  -32.3685  -12.2952 H   0  0  0  0  0  0  0  0  0  0  0  0
   15.6957  -29.8134  -11.6862 H   0  0  0  0  0  0  0  0  0  0  0  0
   16.8502  -30.8141  -12.2626 H   0  0  0  0  0  0  0  0  0  0  0  0
   16.8514  -29.7021   -9.7771 H   0  0  0  0  0  0  0  0  0  0  0  0
   17.8684  -30.8789  -10.2744 H   0  0  0  0  0  0  0  0  0  0  0  0
   16.7894  -32.0157   -8.6008 H   0  0  0  0  0  0  0  0  0  0  0  0
   15.3931  -31.2007   -8.8311 H   0  0  0  0  0  0  0  0  0  0  0  0
  1  2  2  0  0  0  0
  1  6  1  0  0  0  0
  1 19  1  0  0  0  0
  2  3  1  0  0  0  0
  2 20  1  0  0  0  0
  3  4  2  0  0  0  0
  3  8  1  0  0  0  0
  4  5  1  0  0  0  0
  4  9  1  0  0  0  0
  5  6  2  0  0  0  0
  5 21  1  0  0  0  0
  6  7  1  0  0  0  0
  8 22  1  0  0  0  0
  8 23  1  0  0  0  0
  8 24  1  0  0  0  0
  9 10  1  0  0  0  0
  9 25  1  0  0  0  0
 10 11  1  0  0  0  0
 10 12  2  0  0  0  0
 11 13  1  0  0  0  0
 11 26  1  0  0  0  0
 13 14  1  0  0  0  0
 13 27  1  0  0  0  0
 13 28  1  0  0  0  0
 14 15  1  0  0  0  0
 14 18  1  0  0  0  0
 14 29  1  0  0  0  0
 15 16  1  0  0  0  0
 15 30  1  0  0  0  0
 15 31  1  0  0  0  0
 16 17  1  0  0  0  0
 16 32  1  0  0  0  0
 16 33  1  0  0  0  0
 17 18  1  0  0  0  0
 17 34  1  0  0  0  0
 17 35  1  0  0  0  0
 18 36  1  0  0  0  0
 18 37  1  0  0  0  0
M  END
> <BIOSOLVEIT.HYDE_ESTIMATED_AFFINITY_LOWER_BOUNDARY [nM]>
2876927.640820

> <BIOSOLVEIT.HYDE_ESTIMATED_AFFINITY_UPPER_BOUNDARY [nM]>
285839770.857879

> <BIOSOLVEIT.HYDE_LIGAND_EFFICIENCY range: ++, +, 0, -, -->
--

> <BIOSOLVEIT.HYDE_LIGAND_LIPOPHILIC_EFFICIENCY range: ++, +, 0, -, -->
--

> <BIOSOLVEIT.INTER_CLASH range: red, yellow, green>
green

> <BIOSOLVEIT.INTRA_CLASH range: red, yellow, green>
green

> <BIOSOLVEIT.LOGP>
3.96012

> <BIOSOLVEIT.MOLECULAR WEIGHT>
266.77

> <BIOSOLVEIT.MOLECULE_CHECKSUM>
LTguODA0NDY7MC40ODkxMzY=

> <BIOSOLVEIT.TORSION_QUALITY range: red, yellow, green, not rotatable>
red

> <BIOSOLVEIT.TPSA>
41.13

$$$$
G10.sdf
b8Hydescor01032215413D 1   1.00000     0.00000     0
Hydescorer 1.1.2 b8048283
 63 65  0  0  0  0            999 V2000
   25.9623  -41.3823   -8.4483 C   0  0  0  0  0  0  0  0  0  0  0  0
   24.9356  -40.6669   -7.8376 C   0  0  0  0  0  0  0  0  0  0  0  0
   23.6621  -40.6493   -8.4005 C   0  0  0  0  0  0  0  0  0  0  0  0
   23.4208  -41.3614   -9.5802 C   0  0  0  0  0  0  0  0  0  0  0  0
   24.4425  -42.0752  -10.2030 C   0  0  0  0  0  0  0  0  0  0  0  0
   25.7134  -42.0841   -9.6317 C   0  0  0  0  0  0  0  0  0  0  0  0
   26.9934  -42.9687  -10.3915 Cl  0  0  0  0  0  0  0  0  0  0  0  0
   22.1513  -41.3606  -10.2068 N   0  0  0  0  0  0  0  0  0  0  0  0
   21.6993  -40.4909  -11.1786 C   0  0  0  0  0  0  0  0  0  0  0  0
   20.3475  -40.6857  -11.6774 C   0  0  0  0  0  0  0  0  0  0  0  0
   22.4403  -39.5931  -11.5578 O   0  0  0  0  0  0  0  0  0  0  0  0
   19.7214  -41.8589  -12.0604 C   0  0  0  0  0  0  0  0  0  0  0  0
   18.4074  -41.6724  -12.4880 C   0  0  0  0  0  0  0  0  0  0  0  0
   17.9977  -40.3528  -12.4415 C   0  0  0  0  0  0  0  0  0  0  0  0
   19.2757  -39.3376  -11.8641 S   0  0  0  0  0  0  0  0  0  0  0  0
   16.7049  -39.7922  -12.7987 C   0  0  0  0  0  0  0  0  0  0  0  0
   16.6713  -38.6966  -13.6107 N   0  0  0  0  0  0  0  0  0  0  0  0
   15.6250  -40.2498  -12.4340 O   0  0  0  0  0  0  0  0  0  0  0  0
   15.3958  -38.0697  -14.0179 C   0  0  2  0  0  0  0  0  0  0  0  0
   14.8354  -38.8175  -15.2458 C   0  0  0  0  0  0  0  0  0  0  0  0
   15.6972  -36.5952  -14.3899 C   0  0  0  0  0  0  0  0  0  0  0  0
   15.5232  -35.6668  -13.1631 C   0  0  0  0  0  0  0  0  0  0  0  0
   14.3057  -36.0253  -12.2896 C   0  0  0  0  0  0  0  0  0  0  0  0
   14.2260  -35.1291  -11.0367 C   0  0  0  0  0  0  0  0  0  0  0  0
   14.8484  -33.7338  -11.2277 C   0  0  0  0  0  0  0  0  0  0  0  0
   14.6843  -33.2579  -12.6751 C   0  0  0  0  0  0  0  0  0  0  0  0
   15.3835  -34.2102  -13.6650 C   0  0  0  0  0  0  0  0  0  0  0  0
   13.6404  -39.0563  -15.4016 O   0  0  0  0  0  0  0  0  0  0  0  0
   15.7208  -39.1686  -16.1839 N   0  0  0  0  0  0  0  0  0  0  0  0
   15.3806  -39.8810  -17.4146 C   0  0  0  0  0  0  0  0  0  0  0  0
   16.6367  -40.4695  -18.0561 C   0  0  0  0  0  0  0  0  0  0  0  0
   16.2650  -41.2392  -19.1917 O   0  0  0  0  0  0  0  0  0  0  0  0
   17.3838  -41.7039  -19.9298 C   0  0  0  0  0  0  0  0  0  0  0  0
   26.8757  -41.3943   -8.0413 H   0  0  0  0  0  0  0  0  0  0  0  0
   25.1135  -40.1639   -6.9918 H   0  0  0  0  0  0  0  0  0  0  0  0
   22.9258  -40.1316   -7.9649 H   0  0  0  0  0  0  0  0  0  0  0  0
   24.2657  -42.5756  -11.0505 H   0  0  0  0  0  0  0  0  0  0  0  0
   21.5104  -42.0695   -9.9124 H   0  0  0  0  0  0  0  0  0  0  0  0
   20.1679  -42.7533  -12.0332 H   0  0  0  0  0  0  0  0  0  0  0  0
   17.8193  -42.4196  -12.7976 H   0  0  0  0  0  0  0  0  0  0  0  0
   17.5319  -38.3072  -13.9390 H   0  0  0  0  0  0  0  0  0  0  0  0
   14.7393  -38.1064  -13.2646 H   0  0  0  0  0  0  0  0  0  0  0  0
   15.0686  -36.3049  -15.1114 H   0  0  0  0  0  0  0  0  0  0  0  0
   16.6385  -36.5272  -14.7207 H   0  0  0  0  0  0  0  0  0  0  0  0
   16.3467  -35.7297  -12.5994 H   0  0  0  0  0  0  0  0  0  0  0  0
   14.3818  -36.9800  -12.0019 H   0  0  0  0  0  0  0  0  0  0  0  0
   13.4720  -35.9050  -12.8287 H   0  0  0  0  0  0  0  0  0  0  0  0
   14.7064  -35.5886  -10.2897 H   0  0  0  0  0  0  0  0  0  0  0  0
   13.2632  -35.0137  -10.7927 H   0  0  0  0  0  0  0  0  0  0  0  0
   15.8223  -33.7760  -11.0050 H   0  0  0  0  0  0  0  0  0  0  0  0
   14.3944  -33.0859  -10.6161 H   0  0  0  0  0  0  0  0  0  0  0  0
   15.0839  -32.3455  -12.7645 H   0  0  0  0  0  0  0  0  0  0  0  0
   13.7097  -33.2180  -12.8956 H   0  0  0  0  0  0  0  0  0  0  0  0
   14.8550  -34.2215  -14.5138 H   0  0  0  0  0  0  0  0  0  0  0  0
   16.2997  -33.8534  -13.8476 H   0  0  0  0  0  0  0  0  0  0  0  0
   16.6797  -38.9279  -16.0339 H   0  0  0  0  0  0  0  0  0  0  0  0
   14.9508  -39.2447  -18.0553 H   0  0  0  0  0  0  0  0  0  0  0  0
   14.7425  -40.6207  -17.2011 H   0  0  0  0  0  0  0  0  0  0  0  0
   17.1072  -41.0541  -17.3953 H   0  0  0  0  0  0  0  0  0  0  0  0
   17.2461  -39.7288  -18.3391 H   0  0  0  0  0  0  0  0  0  0  0  0
   17.0674  -42.2373  -20.7143 H   0  0  0  0  0  0  0  0  0  0  0  0
   17.9186  -40.9227  -20.2517 H   0  0  0  0  0  0  0  0  0  0  0  0
   17.9541  -42.2794  -19.3436 H   0  0  0  0  0  0  0  0  0  0  0  0
  1  2  2  0  0  0  0
  1  6  1  0  0  0  0
  1 34  1  0  0  0  0
  2  3  1  0  0  0  0
  2 35  1  0  0  0  0
  3  4  2  0  0  0  0
  3 36  1  0  0  0  0
  4  5  1  0  0  0  0
  4  8  1  0  0  0  0
  5  6  2  0  0  0  0
  5 37  1  0  0  0  0
  6  7  1  0  0  0  0
  8  9  1  0  0  0  0
  8 38  1  0  0  0  0
  9 10  1  0  0  0  0
  9 11  2  0  0  0  0
 10 12  2  0  0  0  0
 10 15  1  0  0  0  0
 12 13  1  0  0  0  0
 12 39  1  0  0  0  0
 13 14  2  0  0  0  0
 13 40  1  0  0  0  0
 14 15  1  0  0  0  0
 14 16  1  0  0  0  0
 16 17  1  0  0  0  0
 16 18  2  0  0  0  0
 17 19  1  0  0  0  0
 17 41  1  0  0  0  0
 19 20  1  0  0  0  0
 19 21  1  0  0  0  0
 19 42  1  0  0  0  0
 20 28  2  0  0  0  0
 20 29  1  0  0  0  0
 21 22  1  0  0  0  0
 21 43  1  0  0  0  0
 21 44  1  0  0  0  0
 22 23  1  0  0  0  0
 22 27  1  0  0  0  0
 22 45  1  0  0  0  0
 23 24  1  0  0  0  0
 23 46  1  0  0  0  0
 23 47  1  0  0  0  0
 24 25  1  0  0  0  0
 24 48  1  0  0  0  0
 24 49  1  0  0  0  0
 25 26  1  0  0  0  0
 25 50  1  0  0  0  0
 25 51  1  0  0  0  0
 26 27  1  0  0  0  0
 26 52  1  0  0  0  0
 26 53  1  0  0  0  0
 27 54  1  0  0  0  0
 27 55  1  0  0  0  0
 29 30  1  0  0  0  0
 29 56  1  0  0  0  0
 30 31  1  0  0  0  0
 30 57  1  0  0  0  0
 30 58  1  0  0  0  0
 31 32  1  0  0  0  0
 31 59  1  0  0  0  0
 31 60  1  0  0  0  0
 32 33  1  0  0  0  0
 33 61  1  0  0  0  0
 33 62  1  0  0  0  0
 33 63  1  0  0  0  0
M  END
> <BIOSOLVEIT.HYDE_ESTIMATED_AFFINITY_LOWER_BOUNDARY [nM]>
739305476.753522

> <BIOSOLVEIT.HYDE_ESTIMATED_AFFINITY_UPPER_BOUNDARY [nM]>
73454370235.376511

> <BIOSOLVEIT.HYDE_LIGAND_EFFICIENCY range: ++, +, 0, -, -->
--

> <BIOSOLVEIT.HYDE_LIGAND_LIPOPHILIC_EFFICIENCY range: ++, +, 0, -, -->
--

> <BIOSOLVEIT.INTER_CLASH range: red, yellow, green>
green

> <BIOSOLVEIT.INTRA_CLASH range: red, yellow, green>
green

> <BIOSOLVEIT.LOGP>
4.4852

> <BIOSOLVEIT.MOLECULAR WEIGHT>
492.036

> <BIOSOLVEIT.MOLECULE_CHECKSUM>
NC45NTEyNTsw

> <BIOSOLVEIT.TORSION_QUALITY range: red, yellow, green, not rotatable>
red

> <BIOSOLVEIT.TPSA>
96.53

$$$$
G10.sdf
b8Hydescor01032215413D 1   1.00000     0.00000     0
Hydescorer 1.1.2 b8048283
 63 65  0  0  0  0            999 V2000
   27.6817  -40.5297  -12.4116 C   0  0  0  0  0  0  0  0  0  0  0  0
   27.0928  -40.3710  -11.1599 C   0  0  0  0  0  0  0  0  0  0  0  0
   25.7807  -39.9165  -11.0549 C   0  0  0  0  0  0  0  0  0  0  0  0
   25.0572  -39.6272  -12.2169 C   0  0  0  0  0  0  0  0  0  0  0  0
   25.6391  -39.7762  -13.4739 C   0  0  0  0  0  0  0  0  0  0  0  0
   26.9533  -40.2300  -13.5669 C   0  0  0  0  0  0  0  0  0  0  0  0
   27.6902  -40.4235  -15.1217 Cl  0  0  0  0  0  0  0  0  0  0  0  0
   23.7281  -39.1418  -12.1678 N   0  0  0  0  0  0  0  0  0  0  0  0
   22.5684  -39.8866  -12.0952 C   0  0  0  0  0  0  0  0  0  0  0  0
   21.3077  -39.1633  -12.0555 C   0  0  0  0  0  0  0  0  0  0  0  0
   22.6511  -41.1081  -12.0883 O   0  0  0  0  0  0  0  0  0  0  0  0
   21.0879  -37.7971  -12.0364 C   0  0  0  0  0  0  0  0  0  0  0  0
   19.7372  -37.4529  -12.0022 C   0  0  0  0  0  0  0  0  0  0  0  0
   18.8925  -38.5474  -11.9946 C   0  0  0  0  0  0  0  0  0  0  0  0
   19.8024  -40.0200  -12.0224 S   0  0  0  0  0  0  0  0  0  0  0  0
   17.4392  -38.5703  -11.9711 C   0  0  0  0  0  0  0  0  0  0  0  0
   16.7605  -37.8544  -12.9132 N   0  0  0  0  0  0  0  0  0  0  0  0
   16.7679  -39.2106  -11.1662 O   0  0  0  0  0  0  0  0  0  0  0  0
   15.2829  -37.8280  -12.9544 C   0  0  2  0  0  0  0  0  0  0  0  0
   14.7918  -38.7840  -14.0615 C   0  0  0  0  0  0  0  0  0  0  0  0
   14.8501  -36.3755  -13.2806 C   0  0  0  0  0  0  0  0  0  0  0  0
   15.1011  -35.4377  -12.0745 C   0  0  0  0  0  0  0  0  0  0  0  0
   14.1952  -35.7374  -10.8647 C   0  0  0  0  0  0  0  0  0  0  0  0
   14.5424  -34.8359   -9.6621 C   0  0  0  0  0  0  0  0  0  0  0  0
   15.1370  -33.4716  -10.0568 C   0  0  0  0  0  0  0  0  0  0  0  0
   14.5584  -32.9912  -11.3921 C   0  0  0  0  0  0  0  0  0  0  0  0
   14.8782  -33.9771  -12.5330 C   0  0  0  0  0  0  0  0  0  0  0  0
   13.9640  -39.6707  -13.8675 O   0  0  0  0  0  0  0  0  0  0  0  0
   15.2833  -38.5773  -15.2875 N   0  0  0  0  0  0  0  0  0  0  0  0
   14.9372  -39.3774  -16.4613 C   0  0  0  0  0  0  0  0  0  0  0  0
   15.9169  -40.5394  -16.6238 C   0  0  0  0  0  0  0  0  0  0  0  0
   15.7889  -41.4175  -15.5136 O   0  0  0  0  0  0  0  0  0  0  0  0
   16.6598  -42.5343  -15.5940 C   0  0  0  0  0  0  0  0  0  0  0  0
   28.6238  -40.8574  -12.4842 H   0  0  0  0  0  0  0  0  0  0  0  0
   27.6138  -40.5843  -10.3334 H   0  0  0  0  0  0  0  0  0  0  0  0
   25.3590  -39.7977  -10.1560 H   0  0  0  0  0  0  0  0  0  0  0  0
   25.1193  -39.5599  -14.3004 H   0  0  0  0  0  0  0  0  0  0  0  0
   23.6172  -38.1482  -12.1881 H   0  0  0  0  0  0  0  0  0  0  0  0
   21.8261  -37.1225  -12.0462 H   0  0  0  0  0  0  0  0  0  0  0  0
   19.4116  -36.5076  -11.9849 H   0  0  0  0  0  0  0  0  0  0  0  0
   17.2759  -37.3339  -13.5939 H   0  0  0  0  0  0  0  0  0  0  0  0
   14.9098  -38.1069  -12.0695 H   0  0  0  0  0  0  0  0  0  0  0  0
   13.8754  -36.3671  -13.5041 H   0  0  0  0  0  0  0  0  0  0  0  0
   15.3749  -36.0464  -14.0657 H   0  0  0  0  0  0  0  0  0  0  0  0
   16.0541  -35.5378  -11.7888 H   0  0  0  0  0  0  0  0  0  0  0  0
   14.3140  -36.6940  -10.5988 H   0  0  0  0  0  0  0  0  0  0  0  0
   13.2426  -35.5796  -11.1249 H   0  0  0  0  0  0  0  0  0  0  0  0
   15.2078  -35.3160   -9.0904 H   0  0  0  0  0  0  0  0  0  0  0  0
   13.7065  -34.6752   -9.1372 H   0  0  0  0  0  0  0  0  0  0  0  0
   16.1296  -33.5589  -10.1422 H   0  0  0  0  0  0  0  0  0  0  0  0
   14.9212  -32.8020   -9.3462 H   0  0  0  0  0  0  0  0  0  0  0  0
   14.9509  -32.0987  -11.6142 H   0  0  0  0  0  0  0  0  0  0  0  0
   13.5658  -32.9064  -11.3046 H   0  0  0  0  0  0  0  0  0  0  0  0
   14.1151  -33.9655  -13.1791 H   0  0  0  0  0  0  0  0  0  0  0  0
   15.7091  -33.6637  -12.9928 H   0  0  0  0  0  0  0  0  0  0  0  0
   15.9310  -37.8252  -15.4099 H   0  0  0  0  0  0  0  0  0  0  0  0
   14.9741  -38.7993  -17.2764 H   0  0  0  0  0  0  0  0  0  0  0  0
   14.0117  -39.7399  -16.3514 H   0  0  0  0  0  0  0  0  0  0  0  0
   16.8513  -40.1857  -16.6645 H   0  0  0  0  0  0  0  0  0  0  0  0
   15.7109  -41.0349  -17.4675 H   0  0  0  0  0  0  0  0  0  0  0  0
   16.5296  -43.1170  -14.7918 H   0  0  0  0  0  0  0  0  0  0  0  0
   16.4564  -43.0567  -16.4220 H   0  0  0  0  0  0  0  0  0  0  0  0
   17.6075  -42.2164  -15.6247 H   0  0  0  0  0  0  0  0  0  0  0  0
  1  2  2  0  0  0  0
  1  6  1  0  0  0  0
  1 34  1  0  0  0  0
  2  3  1  0  0  0  0
  2 35  1  0  0  0  0
  3  4  2  0  0  0  0
  3 36  1  0  0  0  0
  4  5  1  0  0  0  0
  4  8  1  0  0  0  0
  5  6  2  0  0  0  0
  5 37  1  0  0  0  0
  6  7  1  0  0  0  0
  8  9  1  0  0  0  0
  8 38  1  0  0  0  0
  9 10  1  0  0  0  0
  9 11  2  0  0  0  0
 10 12  2  0  0  0  0
 10 15  1  0  0  0  0
 12 13  1  0  0  0  0
 12 39  1  0  0  0  0
 13 14  2  0  0  0  0
 13 40  1  0  0  0  0
 14 15  1  0  0  0  0
 14 16  1  0  0  0  0
 16 17  1  0  0  0  0
 16 18  2  0  0  0  0
 17 19  1  0  0  0  0
 17 41  1  0  0  0  0
 19 20  1  0  0  0  0
 19 21  1  0  0  0  0
 19 42  1  0  0  0  0
 20 28  2  0  0  0  0
 20 29  1  0  0  0  0
 21 22  1  0  0  0  0
 21 43  1  0  0  0  0
 21 44  1  0  0  0  0
 22 23  1  0  0  0  0
 22 27  1  0  0  0  0
 22 45  1  0  0  0  0
 23 24  1  0  0  0  0
 23 46  1  0  0  0  0
 23 47  1  0  0  0  0
 24 25  1  0  0  0  0
 24 48  1  0  0  0  0
 24 49  1  0  0  0  0
 25 26  1  0  0  0  0
 25 50  1  0  0  0  0
 25 51  1  0  0  0  0
 26 27  1  0  0  0  0
 26 52  1  0  0  0  0
 26 53  1  0  0  0  0
 27 54  1  0  0  0  0
 27 55  1  0  0  0  0
 29 30  1  0  0  0  0
 29 56  1  0  0  0  0
 30 31  1  0  0  0  0
 30 57  1  0  0  0  0
 30 58  1  0  0  0  0
 31 32  1  0  0  0  0
 31 59  1  0  0  0  0
 31 60  1  0  0  0  0
 32 33  1  0  0  0  0
 33 61  1  0  0  0  0
 33 62  1  0  0  0  0
 33 63  1  0  0  0  0
M  END
> <BIOSOLVEIT.HYDE_ESTIMATED_AFFINITY_LOWER_BOUNDARY [nM]>
87427058.202171

> <BIOSOLVEIT.HYDE_ESTIMATED_AFFINITY_UPPER_BOUNDARY [nM]>
8686395142.062639

> <BIOSOLVEIT.HYDE_LIGAND_EFFICIENCY range: ++, +, 0, -, -->
--

> <BIOSOLVEIT.HYDE_LIGAND_LIPOPHILIC_EFFICIENCY range: ++, +, 0, -, -->
--

> <BIOSOLVEIT.INTER_CLASH range: red, yellow, green>
green

> <BIOSOLVEIT.INTRA_CLASH range: red, yellow, green>
green

> <BIOSOLVEIT.LOGP>
4.4852

> <BIOSOLVEIT.MOLECULAR WEIGHT>
492.036

> <BIOSOLVEIT.MOLECULE_CHECKSUM>
LTAuMzQxMDk1OzAuMDEwMzM2Mg==

> <BIOSOLVEIT.TORSION_QUALITY range: red, yellow, green, not rotatable>
red

> <BIOSOLVEIT.TPSA>
96.53

$$$$
G10.sdf
b8Hydescor01032215413D 1   1.00000     0.00000     0
Hydescorer 1.1.2 b8048283
 63 65  0  0  0  0            999 V2000
   15.1023  -32.0732  -10.3458 C   0  0  0  0  0  0  0  0  0  0  0  0
   14.5724  -33.2306   -9.7812 C   0  0  0  0  0  0  0  0  0  0  0  0
   15.2040  -34.4568   -9.9729 C   0  0  0  0  0  0  0  0  0  0  0  0
   16.3784  -34.5152  -10.7309 C   0  0  0  0  0  0  0  0  0  0  0  0
   16.9135  -33.3644  -11.3055 C   0  0  0  0  0  0  0  0  0  0  0  0
   16.2719  -32.1432  -11.1088 C   0  0  0  0  0  0  0  0  0  0  0  0
   16.9256  -30.7030  -11.8135 Cl  0  0  0  0  0  0  0  0  0  0  0  0
   17.0495  -35.7377  -10.9754 N   0  0  0  0  0  0  0  0  0  0  0  0
   17.3132  -36.3161  -12.2004 C   0  0  0  0  0  0  0  0  0  0  0  0
   18.0222  -37.5855  -12.2046 C   0  0  0  0  0  0  0  0  0  0  0  0
   16.9253  -35.7515  -13.2152 O   0  0  0  0  0  0  0  0  0  0  0  0
   17.5928  -38.8210  -12.6565 C   0  0  0  0  0  0  0  0  0  0  0  0
   18.5460  -39.8279  -12.5081 C   0  0  0  0  0  0  0  0  0  0  0  0
   19.7264  -39.3861  -11.9397 C   0  0  0  0  0  0  0  0  0  0  0  0
   19.6349  -37.6947  -11.5817 S   0  0  0  0  0  0  0  0  0  0  0  0
   20.9304  -40.1456  -11.6456 C   0  0  0  0  0  0  0  0  0  0  0  0
   22.1293  -39.6607  -12.0794 N   0  0  0  0  0  0  0  0  0  0  0  0
   20.9504  -41.1965  -11.0102 O   0  0  0  0  0  0  0  0  0  0  0  0
   23.3970  -40.3757  -11.8192 C   0  0  2  0  0  0  0  0  0  0  0  0
   23.8873  -40.0321  -10.3971 C   0  0  0  0  0  0  0  0  0  0  0  0
   24.4316  -39.8892  -12.8663 C   0  0  0  0  0  0  0  0  0  0  0  0
   25.7828  -40.6256  -12.6946 C   0  0  0  0  0  0  0  0  0  0  0  0
   26.8696  -40.1516  -13.6787 C   0  0  0  0  0  0  0  0  0  0  0  0
   28.2180  -40.8514  -13.4108 C   0  0  0  0  0  0  0  0  0  0  0  0
   28.0801  -42.2538  -12.7904 C   0  0  0  0  0  0  0  0  0  0  0  0
   26.8011  -42.9420  -13.2792 C   0  0  0  0  0  0  0  0  0  0  0  0
   25.5439  -42.1420  -12.8854 C   0  0  0  0  0  0  0  0  0  0  0  0
   24.2802  -40.8778   -9.5973 O   0  0  0  0  0  0  0  0  0  0  0  0
   23.9106  -38.7354  -10.0726 N   0  0  0  0  0  0  0  0  0  0  0  0
   24.3428  -38.2167   -8.7756 C   0  0  0  0  0  0  0  0  0  0  0  0
   23.2372  -38.3915   -7.7348 C   0  0  0  0  0  0  0  0  0  0  0  0
   23.7987  -38.2833   -6.4336 O   0  0  0  0  0  0  0  0  0  0  0  0
   24.4004  -39.4902   -5.9936 C   0  0  0  0  0  0  0  0  0  0  0  0
   14.6473  -31.1938  -10.2057 H   0  0  0  0  0  0  0  0  0  0  0  0
   13.7354  -33.1811   -9.2364 H   0  0  0  0  0  0  0  0  0  0  0  0
   14.8212  -35.2890   -9.5719 H   0  0  0  0  0  0  0  0  0  0  0  0
   17.7487  -33.4142  -11.8530 H   0  0  0  0  0  0  0  0  0  0  0  0
   17.3681  -36.2381  -10.1703 H   0  0  0  0  0  0  0  0  0  0  0  0
   16.6872  -38.9766  -13.0510 H   0  0  0  0  0  0  0  0  0  0  0  0
   18.3911  -40.7760  -12.7855 H   0  0  0  0  0  0  0  0  0  0  0  0
   22.1514  -38.7991  -12.5865 H   0  0  0  0  0  0  0  0  0  0  0  0
   23.2588  -41.3623  -11.9057 H   0  0  0  0  0  0  0  0  0  0  0  0
   24.5774  -38.9068  -12.7501 H   0  0  0  0  0  0  0  0  0  0  0  0
   24.0765  -40.0672  -13.7841 H   0  0  0  0  0  0  0  0  0  0  0  0
   26.1110  -40.4717  -11.7626 H   0  0  0  0  0  0  0  0  0  0  0  0
   26.9904  -39.1640  -13.5786 H   0  0  0  0  0  0  0  0  0  0  0  0
   26.5757  -40.3586  -14.6118 H   0  0  0  0  0  0  0  0  0  0  0  0
   28.7500  -40.2811  -12.7850 H   0  0  0  0  0  0  0  0  0  0  0  0
   28.7060  -40.9379  -14.2794 H   0  0  0  0  0  0  0  0  0  0  0  0
   28.0470  -42.1699  -11.7945 H   0  0  0  0  0  0  0  0  0  0  0  0
   28.8707  -42.8072  -13.0523 H   0  0  0  0  0  0  0  0  0  0  0  0
   26.7468  -43.8539  -12.8722 H   0  0  0  0  0  0  0  0  0  0  0  0
   26.8360  -43.0231  -14.2753 H   0  0  0  0  0  0  0  0  0  0  0  0
   24.8591  -42.2624  -13.6042 H   0  0  0  0  0  0  0  0  0  0  0  0
   25.1936  -42.5138  -12.0257 H   0  0  0  0  0  0  0  0  0  0  0  0
   23.6125  -38.0762  -10.7630 H   0  0  0  0  0  0  0  0  0  0  0  0
   24.5596  -37.2447   -8.8654 H   0  0  0  0  0  0  0  0  0  0  0  0
   25.1575  -38.7138   -8.4772 H   0  0  0  0  0  0  0  0  0  0  0  0
   22.8152  -39.2916   -7.8431 H   0  0  0  0  0  0  0  0  0  0  0  0
   22.5444  -37.6813   -7.8602 H   0  0  0  0  0  0  0  0  0  0  0  0
   24.7781  -39.3595   -5.0768 H   0  0  0  0  0  0  0  0  0  0  0  0
   23.7132  -40.2162   -5.9706 H   0  0  0  0  0  0  0  0  0  0  0  0
   25.1343  -39.7457   -6.6230 H   0  0  0  0  0  0  0  0  0  0  0  0
  1  2  2  0  0  0  0
  1  6  1  0  0  0  0
  1 34  1  0  0  0  0
  2  3  1  0  0  0  0
  2 35  1  0  0  0  0
  3  4  2  0  0  0  0
  3 36  1  0  0  0  0
  4  5  1  0  0  0  0
  4  8  1  0  0  0  0
  5  6  2  0  0  0  0
  5 37  1  0  0  0  0
  6  7  1  0  0  0  0
  8  9  1  0  0  0  0
  8 38  1  0  0  0  0
  9 10  1  0  0  0  0
  9 11  2  0  0  0  0
 10 12  2  0  0  0  0
 10 15  1  0  0  0  0
 12 13  1  0  0  0  0
 12 39  1  0  0  0  0
 13 14  2  0  0  0  0
 13 40  1  0  0  0  0
 14 15  1  0  0  0  0
 14 16  1  0  0  0  0
 16 17  1  0  0  0  0
 16 18  2  0  0  0  0
 17 19  1  0  0  0  0
 17 41  1  0  0  0  0
 19 20  1  0  0  0  0
 19 21  1  0  0  0  0
 19 42  1  0  0  0  0
 20 28  2  0  0  0  0
 20 29  1  0  0  0  0
 21 22  1  0  0  0  0
 21 43  1  0  0  0  0
 21 44  1  0  0  0  0
 22 23  1  0  0  0  0
 22 27  1  0  0  0  0
 22 45  1  0  0  0  0
 23 24  1  0  0  0  0
 23 46  1  0  0  0  0
 23 47  1  0  0  0  0
 24 25  1  0  0  0  0
 24 48  1  0  0  0  0
 24 49  1  0  0  0  0
 25 26  1  0  0  0  0
 25 50  1  0  0  0  0
 25 51  1  0  0  0  0
 26 27  1  0  0  0  0
 26 52  1  0  0  0  0
 26 53  1  0  0  0  0
 27 54  1  0  0  0  0
 27 55  1  0  0  0  0
 29 30  1  0  0  0  0
 29 56  1  0  0  0  0
 30 31  1  0  0  0  0
 30 57  1  0  0  0  0
 30 58  1  0  0  0  0
 31 32  1  0  0  0  0
 31 59  1  0  0  0  0
 31 60  1  0  0  0  0
 32 33  1  0  0  0  0
 33 61  1  0  0  0  0
 33 62  1  0  0  0  0
 33 63  1  0  0  0  0
M  END
> <BIOSOLVEIT.HYDE_ESTIMATED_AFFINITY_LOWER_BOUNDARY [nM]>
7317734.888117

> <BIOSOLVEIT.HYDE_ESTIMATED_AFFINITY_UPPER_BOUNDARY [nM]>
727060227.007241

> <BIOSOLVEIT.HYDE_LIGAND_EFFICIENCY range: ++, +, 0, -, -->
--

> <BIOSOLVEIT.HYDE_LIGAND_LIPOPHILIC_EFFICIENCY range: ++, +, 0, -, -->
--

> <BIOSOLVEIT.INTER_CLASH range: red, yellow, green>
green

> <BIOSOLVEIT.INTRA_CLASH range: red, yellow, green>
green

> <BIOSOLVEIT.LOGP>
4.4852

> <BIOSOLVEIT.MOLECULAR WEIGHT>
492.036

> <BIOSOLVEIT.MOLECULE_CHECKSUM>
LTYuNDkwMTY7MC4xOTY2NzE=

> <BIOSOLVEIT.TORSION_QUALITY range: red, yellow, green, not rotatable>
red

> <BIOSOLVEIT.TPSA>
96.53

$$$$
Z1315931726.****
b8Hydescor01032215413D 1   1.00000     0.00000     0
Hydescorer 1.1.2 b8048283
 37 38  0  0  0  0            999 V2000
   14.7536  -33.7503  -10.3049 C   0  0  0  0  0  0  0  0  0  0  0  0
   14.8141  -35.0087   -9.7103 C   0  0  0  0  0  0  0  0  0  0  0  0
   15.9421  -35.8115   -9.8552 C   0  0  0  0  0  0  0  0  0  0  0  0
   17.0140  -35.3194  -10.6082 C   0  0  0  0  0  0  0  0  0  0  0  0
   16.9749  -34.0488  -11.1831 C   0  0  0  0  0  0  0  0  0  0  0  0
   15.8296  -33.2580  -11.0564 C   0  0  0  0  0  0  0  0  0  0  0  0
   15.7573  -31.8727  -11.7093 C   0  0  0  0  0  0  0  0  0  0  0  0
   15.1172  -31.0010  -10.9031 F   0  0  0  0  0  0  0  0  0  0  0  0
   16.9932  -31.4017  -11.9597 F   0  0  0  0  0  0  0  0  0  0  0  0
   15.0846  -31.9663  -12.8675 F   0  0  0  0  0  0  0  0  0  0  0  0
   15.9831  -37.1863   -9.2095 C   0  0  0  0  0  0  0  0  0  0  0  0
   18.1563  -36.1253  -10.7878 N   0  0  0  0  0  0  0  0  0  0  0  0
   18.3572  -37.0545  -11.7698 C   0  0  0  0  0  0  0  0  0  0  0  0
   19.6440  -37.8863  -11.8802 C   0  0  0  0  0  0  0  0  0  0  0  0
   19.3331  -39.2469  -12.4179 N   0  0  0  0  0  0  0  0  0  0  0  0
   20.0100  -40.3341  -11.8577 C   0  0  0  0  0  0  0  0  0  0  0  0
   21.2076  -40.0886  -11.1904 C   0  0  0  0  0  0  0  0  0  0  0  0
   21.8781  -41.1444  -10.5794 C   0  0  0  0  0  0  0  0  0  0  0  0
   21.3666  -42.4424  -10.6495 C   0  0  0  0  0  0  0  0  0  0  0  0
   20.1825  -42.6830  -11.3414 C   0  0  0  0  0  0  0  0  0  0  0  0
   19.5029  -41.6342  -11.9531 C   0  0  0  0  0  0  0  0  0  0  0  0
   23.3497  -40.8449   -9.7145 Cl  0  0  0  0  0  0  0  0  0  0  0  0
   17.4540  -37.1491  -12.5711 O   0  0  0  0  0  0  0  0  0  0  0  0
   13.9321  -33.1911  -10.1943 H   0  0  0  0  0  0  0  0  0  0  0  0
   14.0381  -35.3392   -9.1730 H   0  0  0  0  0  0  0  0  0  0  0  0
   17.7671  -33.7037  -11.6862 H   0  0  0  0  0  0  0  0  0  0  0  0
   16.8591  -37.6237   -9.4121 H   0  0  0  0  0  0  0  0  0  0  0  0
   15.8783  -37.0928   -8.2194 H   0  0  0  0  0  0  0  0  0  0  0  0
   15.2387  -37.7471   -9.5720 H   0  0  0  0  0  0  0  0  0  0  0  0
   18.8974  -36.0046  -10.1275 H   0  0  0  0  0  0  0  0  0  0  0  0
   20.0586  -37.9755  -10.9746 H   0  0  0  0  0  0  0  0  0  0  0  0
   20.2835  -37.4258  -12.4957 H   0  0  0  0  0  0  0  0  0  0  0  0
   18.6654  -39.3742  -13.1514 H   0  0  0  0  0  0  0  0  0  0  0  0
   21.5823  -39.1624  -11.1506 H   0  0  0  0  0  0  0  0  0  0  0  0
   21.8494  -43.1965  -10.2043 H   0  0  0  0  0  0  0  0  0  0  0  0
   19.8191  -43.6129  -11.3988 H   0  0  0  0  0  0  0  0  0  0  0  0
   18.6574  -41.8088  -12.4577 H   0  0  0  0  0  0  0  0  0  0  0  0
  1  2  2  0  0  0  0
  1  6  1  0  0  0  0
  1 24  1  0  0  0  0
  2  3  1  0  0  0  0
  2 25  1  0  0  0  0
  3  4  2  0  0  0  0
  3 11  1  0  0  0  0
  4  5  1  0  0  0  0
  4 12  1  0  0  0  0
  5  6  2  0  0  0  0
  5 26  1  0  0  0  0
  6  7  1  0  0  0  0
  7  8  1  0  0  0  0
  7  9  1  0  0  0  0
  7 10  1  0  0  0  0
 11 27  1  0  0  0  0
 11 28  1  0  0  0  0
 11 29  1  0  0  0  0
 12 13  1  0  0  0  0
 12 30  1  0  0  0  0
 13 14  1  0  0  0  0
 13 23  2  0  0  0  0
 14 15  1  0  0  0  0
 14 31  1  0  0  0  0
 14 32  1  0  0  0  0
 15 16  1  0  0  0  0
 15 33  1  0  0  0  0
 16 17  2  0  0  0  0
 16 21  1  0  0  0  0
 17 18  1  0  0  0  0
 17 34  1  0  0  0  0
 18 19  2  0  0  0  0
 18 22  1  0  0  0  0
 19 20  1  0  0  0  0
 19 35  1  0  0  0  0
 20 21  2  0  0  0  0
 20 36  1  0  0  0  0
 21 37  1  0  0  0  0
M  END
> <BIOSOLVEIT.HYDE_ESTIMATED_AFFINITY_LOWER_BOUNDARY [nM]>
323013.774169

> <BIOSOLVEIT.HYDE_ESTIMATED_AFFINITY_UPPER_BOUNDARY [nM]>
32093328.272226

> <BIOSOLVEIT.HYDE_LIGAND_EFFICIENCY range: ++, +, 0, -, -->
--

> <BIOSOLVEIT.HYDE_LIGAND_LIPOPHILIC_EFFICIENCY range: ++, +, 0, -, -->
--

> <BIOSOLVEIT.INTER_CLASH range: red, yellow, green>
green

> <BIOSOLVEIT.INTRA_CLASH range: red, yellow, green>
green

> <BIOSOLVEIT.LOGP>
4.71782

> <BIOSOLVEIT.MOLECULAR WEIGHT>
342.747

> <BIOSOLVEIT.MOLECULE_CHECKSUM>
LTE0LjIyNTQ7MC42MTg0OTY=

> <BIOSOLVEIT.TORSION_QUALITY range: red, yellow, green, not rotatable>
green

> <BIOSOLVEIT.TPSA>
41.13

$$$$
Z1315931726.****
b8Hydescor01032215413D 1   1.00000     0.00000     0
Hydescorer 1.1.2 b8048283
 37 38  0  0  0  0            999 V2000
   18.1770  -38.9844  -14.4801 C   0  0  0  0  0  0  0  0  0  0  0  0
   16.8790  -38.4840  -14.4016 C   0  0  0  0  0  0  0  0  0  0  0  0
   16.3465  -38.0735  -13.1828 C   0  0  0  0  0  0  0  0  0  0  0  0
   17.1501  -38.1713  -12.0414 C   0  0  0  0  0  0  0  0  0  0  0  0
   18.4608  -38.6434  -12.1142 C   0  0  0  0  0  0  0  0  0  0  0  0
   18.9812  -39.0788  -13.3360 C   0  0  0  0  0  0  0  0  0  0  0  0
   20.4087  -39.6308  -13.4281 C   0  0  0  0  0  0  0  0  0  0  0  0
   21.2309  -38.9613  -12.5945 F   0  0  0  0  0  0  0  0  0  0  0  0
   20.4337  -40.9368  -13.1025 F   0  0  0  0  0  0  0  0  0  0  0  0
   20.8559  -39.4874  -14.6859 F   0  0  0  0  0  0  0  0  0  0  0  0
   14.9242  -37.5428  -13.1164 C   0  0  0  0  0  0  0  0  0  0  0  0
   16.6226  -37.7837  -10.7930 N   0  0  0  0  0  0  0  0  0  0  0  0
   17.0909  -36.7912   -9.9783 C   0  0  0  0  0  0  0  0  0  0  0  0
   16.4425  -36.4440   -8.6297 C   0  0  0  0  0  0  0  0  0  0  0  0
   15.1742  -35.6821   -8.8490 N   0  0  0  0  0  0  0  0  0  0  0  0
   15.1833  -34.6763   -9.8197 C   0  0  0  0  0  0  0  0  0  0  0  0
   14.5380  -34.9250  -11.0286 C   0  0  0  0  0  0  0  0  0  0  0  0
   14.4873  -33.9239  -11.9946 C   0  0  0  0  0  0  0  0  0  0  0  0
   15.0937  -32.6869  -11.7638 C   0  0  0  0  0  0  0  0  0  0  0  0
   15.7594  -32.4562  -10.5628 C   0  0  0  0  0  0  0  0  0  0  0  0
   15.8133  -33.4490   -9.5895 C   0  0  0  0  0  0  0  0  0  0  0  0
   13.6550  -34.2092  -13.4877 Cl  0  0  0  0  0  0  0  0  0  0  0  0
   18.0397  -36.1798  -10.4173 O   0  0  0  0  0  0  0  0  0  0  0  0
   18.5394  -39.2799  -15.3640 H   0  0  0  0  0  0  0  0  0  0  0  0
   16.3235  -38.4189  -15.2306 H   0  0  0  0  0  0  0  0  0  0  0  0
   19.0286  -38.6703  -11.2915 H   0  0  0  0  0  0  0  0  0  0  0  0
   14.7046  -37.2953  -12.1727 H   0  0  0  0  0  0  0  0  0  0  0  0
   14.8421  -36.7353  -13.7005 H   0  0  0  0  0  0  0  0  0  0  0  0
   14.2900  -38.2486  -13.4322 H   0  0  0  0  0  0  0  0  0  0  0  0
   15.8217  -38.2877  -10.4695 H   0  0  0  0  0  0  0  0  0  0  0  0
   17.0750  -35.8856   -8.0929 H   0  0  0  0  0  0  0  0  0  0  0  0
   16.2395  -37.2881   -8.1333 H   0  0  0  0  0  0  0  0  0  0  0  0
   14.3499  -35.8849   -8.3205 H   0  0  0  0  0  0  0  0  0  0  0  0
   14.1150  -35.8145  -11.2011 H   0  0  0  0  0  0  0  0  0  0  0  0
   15.0498  -31.9693  -12.4588 H   0  0  0  0  0  0  0  0  0  0  0  0
   16.2005  -31.5738  -10.3992 H   0  0  0  0  0  0  0  0  0  0  0  0
   16.2994  -33.2860   -8.7309 H   0  0  0  0  0  0  0  0  0  0  0  0
  1  2  2  0  0  0  0
  1  6  1  0  0  0  0
  1 24  1  0  0  0  0
  2  3  1  0  0  0  0
  2 25  1  0  0  0  0
  3  4  2  0  0  0  0
  3 11  1  0  0  0  0
  4  5  1  0  0  0  0
  4 12  1  0  0  0  0
  5  6  2  0  0  0  0
  5 26  1  0  0  0  0
  6  7  1  0  0  0  0
  7  8  1  0  0  0  0
  7  9  1  0  0  0  0
  7 10  1  0  0  0  0
 11 27  1  0  0  0  0
 11 28  1  0  0  0  0
 11 29  1  0  0  0  0
 12 13  1  0  0  0  0
 12 30  1  0  0  0  0
 13 14  1  0  0  0  0
 13 23  2  0  0  0  0
 14 15  1  0  0  0  0
 14 31  1  0  0  0  0
 14 32  1  0  0  0  0
 15 16  1  0  0  0  0
 15 33  1  0  0  0  0
 16 17  2  0  0  0  0
 16 21  1  0  0  0  0
 17 18  1  0  0  0  0
 17 34  1  0  0  0  0
 18 19  2  0  0  0  0
 18 22  1  0  0  0  0
 19 20  1  0  0  0  0
 19 35  1  0  0  0  0
 20 21  2  0  0  0  0
 20 36  1  0  0  0  0
 21 37  1  0  0  0  0
M  END
> <BIOSOLVEIT.HYDE_ESTIMATED_AFFINITY_LOWER_BOUNDARY [nM]>
2199794455.458788

> <BIOSOLVEIT.HYDE_ESTIMATED_AFFINITY_UPPER_BOUNDARY [nM]>
218562585363.978394

> <BIOSOLVEIT.HYDE_LIGAND_EFFICIENCY range: ++, +, 0, -, -->
--

> <BIOSOLVEIT.HYDE_LIGAND_LIPOPHILIC_EFFICIENCY range: ++, +, 0, -, -->
--

> <BIOSOLVEIT.INTER_CLASH range: red, yellow, green>
green

> <BIOSOLVEIT.INTRA_CLASH range: red, yellow, green>
green

> <BIOSOLVEIT.LOGP>
4.71782

> <BIOSOLVEIT.MOLECULAR WEIGHT>
342.747

> <BIOSOLVEIT.MOLECULE_CHECKSUM>
Ny42NTQzMjsw

> <BIOSOLVEIT.TORSION_QUALITY range: red, yellow, green, not rotatable>
red

> <BIOSOLVEIT.TPSA>
41.13

$$$$
Z1315931726.****
b8Hydescor01032215413D 1   1.00000     0.00000     0
Hydescorer 1.1.2 b8048283
 37 38  0  0  0  0            999 V2000
   19.1750  -37.4315  -14.5312 C   0  0  0  0  0  0  0  0  0  0  0  0
   19.9823  -37.5589  -13.4029 C   0  0  0  0  0  0  0  0  0  0  0  0
   19.5203  -37.1689  -12.1491 C   0  0  0  0  0  0  0  0  0  0  0  0
   18.2239  -36.6517  -12.0513 C   0  0  0  0  0  0  0  0  0  0  0  0
   17.3973  -36.5474  -13.1703 C   0  0  0  0  0  0  0  0  0  0  0  0
   17.8755  -36.9158  -14.4307 C   0  0  0  0  0  0  0  0  0  0  0  0
   16.9917  -36.7770  -15.6759 C   0  0  0  0  0  0  0  0  0  0  0  0
   16.2807  -37.9048  -15.8810 F   0  0  0  0  0  0  0  0  0  0  0  0
   16.1366  -35.7467  -15.5377 F   0  0  0  0  0  0  0  0  0  0  0  0
   17.7711  -36.5551  -16.7465 F   0  0  0  0  0  0  0  0  0  0  0  0
   20.4212  -37.3039  -10.9328 C   0  0  0  0  0  0  0  0  0  0  0  0
   17.7446  -36.2283  -10.7951 N   0  0  0  0  0  0  0  0  0  0  0  0
   17.1508  -37.0056   -9.8405 C   0  0  0  0  0  0  0  0  0  0  0  0
   16.6602  -36.4463   -8.4964 C   0  0  0  0  0  0  0  0  0  0  0  0
   15.2784  -35.8932   -8.6423 N   0  0  0  0  0  0  0  0  0  0  0  0
   14.8669  -35.5092   -9.9219 C   0  0  0  0  0  0  0  0  0  0  0  0
   15.1391  -34.2077  -10.3360 C   0  0  0  0  0  0  0  0  0  0  0  0
   14.7862  -33.8123  -11.6232 C   0  0  0  0  0  0  0  0  0  0  0  0
   14.1476  -34.7050  -12.4873 C   0  0  0  0  0  0  0  0  0  0  0  0
   13.8555  -35.9963  -12.0558 C   0  0  0  0  0  0  0  0  0  0  0  0
   14.2067  -36.4023  -10.7722 C   0  0  0  0  0  0  0  0  0  0  0  0
   15.1535  -32.2067  -12.1621 Cl  0  0  0  0  0  0  0  0  0  0  0  0
   17.0710  -38.1810  -10.1208 O   0  0  0  0  0  0  0  0  0  0  0  0
   19.5271  -37.7116  -15.4243 H   0  0  0  0  0  0  0  0  0  0  0  0
   20.9043  -37.9349  -13.4949 H   0  0  0  0  0  0  0  0  0  0  0  0
   16.4618  -36.2087  -13.0704 H   0  0  0  0  0  0  0  0  0  0  0  0
   19.9355  -36.9804  -10.1208 H   0  0  0  0  0  0  0  0  0  0  0  0
   20.6736  -38.2637  -10.8099 H   0  0  0  0  0  0  0  0  0  0  0  0
   21.2472  -36.7566  -11.0674 H   0  0  0  0  0  0  0  0  0  0  0  0
   17.8501  -35.2575  -10.5798 H   0  0  0  0  0  0  0  0  0  0  0  0
   17.2774  -35.7191   -8.1959 H   0  0  0  0  0  0  0  0  0  0  0  0
   16.6528  -37.1793   -7.8163 H   0  0  0  0  0  0  0  0  0  0  0  0
   14.6709  -35.8014   -7.8533 H   0  0  0  0  0  0  0  0  0  0  0  0
   15.5840  -33.5631   -9.7143 H   0  0  0  0  0  0  0  0  0  0  0  0
   13.9011  -34.4177  -13.4128 H   0  0  0  0  0  0  0  0  0  0  0  0
   13.3915  -36.6340  -12.6706 H   0  0  0  0  0  0  0  0  0  0  0  0
   13.9884  -37.3268  -10.4595 H   0  0  0  0  0  0  0  0  0  0  0  0
  1  2  2  0  0  0  0
  1  6  1  0  0  0  0
  1 24  1  0  0  0  0
  2  3  1  0  0  0  0
  2 25  1  0  0  0  0
  3  4  2  0  0  0  0
  3 11  1  0  0  0  0
  4  5  1  0  0  0  0
  4 12  1  0  0  0  0
  5  6  2  0  0  0  0
  5 26  1  0  0  0  0
  6  7  1  0  0  0  0
  7  8  1  0  0  0  0
  7  9  1  0  0  0  0
  7 10  1  0  0  0  0
 11 27  1  0  0  0  0
 11 28  1  0  0  0  0
 11 29  1  0  0  0  0
 12 13  1  0  0  0  0
 12 30  1  0  0  0  0
 13 14  1  0  0  0  0
 13 23  2  0  0  0  0
 14 15  1  0  0  0  0
 14 31  1  0  0  0  0
 14 32  1  0  0  0  0
 15 16  1  0  0  0  0
 15 33  1  0  0  0  0
 16 17  2  0  0  0  0
 16 21  1  0  0  0  0
 17 18  1  0  0  0  0
 17 34  1  0  0  0  0
 18 19  2  0  0  0  0
 18 22  1  0  0  0  0
 19 20  1  0  0  0  0
 19 35  1  0  0  0  0
 20 21  2  0  0  0  0
 20 36  1  0  0  0  0
 21 37  1  0  0  0  0
M  END
> <BIOSOLVEIT.HYDE_ESTIMATED_AFFINITY_LOWER_BOUNDARY [nM]>
1248945261.988846

> <BIOSOLVEIT.HYDE_ESTIMATED_AFFINITY_UPPER_BOUNDARY [nM]>
124090096127.386780

> <BIOSOLVEIT.HYDE_LIGAND_EFFICIENCY range: ++, +, 0, -, -->
--

> <BIOSOLVEIT.HYDE_LIGAND_LIPOPHILIC_EFFICIENCY range: ++, +, 0, -, -->
--

> <BIOSOLVEIT.INTER_CLASH range: red, yellow, green>
green

> <BIOSOLVEIT.INTRA_CLASH range: red, yellow, green>
green

> <BIOSOLVEIT.LOGP>
4.71782

> <BIOSOLVEIT.MOLECULAR WEIGHT>
342.747

> <BIOSOLVEIT.MOLECULE_CHECKSUM>
Ni4yNTEwNzsw

> <BIOSOLVEIT.TORSION_QUALITY range: red, yellow, green, not rotatable>
red

> <BIOSOLVEIT.TPSA>
41.13

$$$$
Z1315931726.****
b8Hydescor01032215413D 1   1.00000     0.00000     0
Hydescorer 1.1.2 b8048283
 37 38  0  0  0  0            999 V2000
   18.0249  -40.2963  -13.8235 C   0  0  0  0  0  0  0  0  0  0  0  0
   16.8885  -40.7439  -13.1531 C   0  0  0  0  0  0  0  0  0  0  0  0
   16.1969  -39.9039  -12.2849 C   0  0  0  0  0  0  0  0  0  0  0  0
   16.6692  -38.5986  -12.1080 C   0  0  0  0  0  0  0  0  0  0  0  0
   17.7888  -38.1319  -12.7970 C   0  0  0  0  0  0  0  0  0  0  0  0
   18.4948  -38.9875  -13.6471 C   0  0  0  0  0  0  0  0  0  0  0  0
   19.7464  -38.5006  -14.3869 C   0  0  0  0  0  0  0  0  0  0  0  0
   20.4076  -39.5402  -14.9357 F   0  0  0  0  0  0  0  0  0  0  0  0
   19.4133  -37.6364  -15.3638 F   0  0  0  0  0  0  0  0  0  0  0  0
   20.5590  -37.8808  -13.5162 F   0  0  0  0  0  0  0  0  0  0  0  0
   14.9672  -40.4153  -11.5533 C   0  0  0  0  0  0  0  0  0  0  0  0
   15.9980  -37.7389  -11.2152 N   0  0  0  0  0  0  0  0  0  0  0  0
   16.4138  -37.3668   -9.9674 C   0  0  0  0  0  0  0  0  0  0  0  0
   15.6060  -36.4197   -9.0672 C   0  0  0  0  0  0  0  0  0  0  0  0
   16.3269  -35.1186   -8.9106 N   0  0  0  0  0  0  0  0  0  0  0  0
   15.9218  -34.0530   -9.7196 C   0  0  0  0  0  0  0  0  0  0  0  0
   16.4895  -32.8020   -9.4904 C   0  0  0  0  0  0  0  0  0  0  0  0
   16.1431  -31.7335  -10.3126 C   0  0  0  0  0  0  0  0  0  0  0  0
   15.2203  -31.9069  -11.3468 C   0  0  0  0  0  0  0  0  0  0  0  0
   14.6376  -33.1549  -11.5520 C   0  0  0  0  0  0  0  0  0  0  0  0
   14.9793  -34.2302  -10.7378 C   0  0  0  0  0  0  0  0  0  0  0  0
   16.8713  -30.1813  -10.0602 Cl  0  0  0  0  0  0  0  0  0  0  0  0
   17.4893  -37.8148   -9.6365 O   0  0  0  0  0  0  0  0  0  0  0  0
   18.5117  -40.9168  -14.4385 H   0  0  0  0  0  0  0  0  0  0  0  0
   16.5659  -41.6794  -13.2973 H   0  0  0  0  0  0  0  0  0  0  0  0
   18.0866  -37.1841  -12.6824 H   0  0  0  0  0  0  0  0  0  0  0  0
   14.5965  -39.6880  -10.9757 H   0  0  0  0  0  0  0  0  0  0  0  0
   14.2763  -40.6970  -12.2191 H   0  0  0  0  0  0  0  0  0  0  0  0
   15.2195  -41.1974  -10.9835 H   0  0  0  0  0  0  0  0  0  0  0  0
   15.1261  -37.3616  -11.5274 H   0  0  0  0  0  0  0  0  0  0  0  0
   15.4850  -36.8409   -8.1684 H   0  0  0  0  0  0  0  0  0  0  0  0
   14.7107  -36.2539   -9.4808 H   0  0  0  0  0  0  0  0  0  0  0  0
   17.0715  -35.0147   -8.2511 H   0  0  0  0  0  0  0  0  0  0  0  0
   17.1401  -32.6727   -8.7420 H   0  0  0  0  0  0  0  0  0  0  0  0
   14.9789  -31.1374  -11.9379 H   0  0  0  0  0  0  0  0  0  0  0  0
   13.9712  -33.2788  -12.2872 H   0  0  0  0  0  0  0  0  0  0  0  0
   14.5538  -35.1240  -10.8796 H   0  0  0  0  0  0  0  0  0  0  0  0
  1  2  2  0  0  0  0
  1  6  1  0  0  0  0
  1 24  1  0  0  0  0
  2  3  1  0  0  0  0
  2 25  1  0  0  0  0
  3  4  2  0  0  0  0
  3 11  1  0  0  0  0
  4  5  1  0  0  0  0
  4 12  1  0  0  0  0
  5  6  2  0  0  0  0
  5 26  1  0  0  0  0
  6  7  1  0  0  0  0
  7  8  1  0  0  0  0
  7  9  1  0  0  0  0
  7 10  1  0  0  0  0
 11 27  1  0  0  0  0
 11 28  1  0  0  0  0
 11 29  1  0  0  0  0
 12 13  1  0  0  0  0
 12 30  1  0  0  0  0
 13 14  1  0  0  0  0
 13 23  2  0  0  0  0
 14 15  1  0  0  0  0
 14 31  1  0  0  0  0
 14 32  1  0  0  0  0
 15 16  1  0  0  0  0
 15 33  1  0  0  0  0
 16 17  2  0  0  0  0
 16 21  1  0  0  0  0
 17 18  1  0  0  0  0
 17 34  1  0  0  0  0
 18 19  2  0  0  0  0
 18 22  1  0  0  0  0
 19 20  1  0  0  0  0
 19 35  1  0  0  0  0
 20 21  2  0  0  0  0
 20 36  1  0  0  0  0
 21 37  1  0  0  0  0
M  END
> <BIOSOLVEIT.HYDE_ESTIMATED_AFFINITY_LOWER_BOUNDARY [nM]>
3230375.251425

> <BIOSOLVEIT.HYDE_ESTIMATED_AFFINITY_UPPER_BOUNDARY [nM]>
320956880.719152

> <BIOSOLVEIT.HYDE_LIGAND_EFFICIENCY range: ++, +, 0, -, -->
--

> <BIOSOLVEIT.HYDE_LIGAND_LIPOPHILIC_EFFICIENCY range: ++, +, 0, -, -->
--

> <BIOSOLVEIT.INTER_CLASH range: red, yellow, green>
green

> <BIOSOLVEIT.INTRA_CLASH range: red, yellow, green>
green

> <BIOSOLVEIT.LOGP>
4.71782

> <BIOSOLVEIT.MOLECULAR WEIGHT>
342.747

> <BIOSOLVEIT.MOLECULE_CHECKSUM>
LTguNTE3MjE7MC4zNzAzMTM=

> <BIOSOLVEIT.TORSION_QUALITY range: red, yellow, green, not rotatable>
yellow

> <BIOSOLVEIT.TPSA>
41.13

$$$$
Z1315931726.****
b8Hydescor01032215413D 1   1.00000     0.00000     0
Hydescorer 1.1.2 b8048283
 37 38  0  0  0  0            999 V2000
   13.7335  -34.5149  -13.1474 C   0  0  0  0  0  0  0  0  0  0  0  0
   14.5111  -33.5517  -12.5081 C   0  0  0  0  0  0  0  0  0  0  0  0
   15.3851  -33.9066  -11.4845 C   0  0  0  0  0  0  0  0  0  0  0  0
   15.4659  -35.2550  -11.1192 C   0  0  0  0  0  0  0  0  0  0  0  0
   14.7134  -36.2309  -11.7731 C   0  0  0  0  0  0  0  0  0  0  0  0
   13.8182  -35.8654  -12.7820 C   0  0  0  0  0  0  0  0  0  0  0  0
   12.9596  -36.9211  -13.4886 C   0  0  0  0  0  0  0  0  0  0  0  0
   13.6940  -37.6034  -14.3910 F   0  0  0  0  0  0  0  0  0  0  0  0
   12.4517  -37.7929  -12.5974 F   0  0  0  0  0  0  0  0  0  0  0  0
   11.9474  -36.3109  -14.1256 F   0  0  0  0  0  0  0  0  0  0  0  0
   16.2148  -32.8391  -10.7909 C   0  0  0  0  0  0  0  0  0  0  0  0
   16.3268  -35.6330  -10.0690 N   0  0  0  0  0  0  0  0  0  0  0  0
   17.6918  -35.6919  -10.1096 C   0  0  0  0  0  0  0  0  0  0  0  0
   18.5442  -36.1185   -8.9049 C   0  0  0  0  0  0  0  0  0  0  0  0
   19.9905  -35.8512   -9.1769 N   0  0  0  0  0  0  0  0  0  0  0  0
   20.7111  -36.8311   -9.8657 C   0  0  0  0  0  0  0  0  0  0  0  0
   21.9134  -37.2696   -9.3161 C   0  0  0  0  0  0  0  0  0  0  0  0
   22.6276  -38.2802   -9.9536 C   0  0  0  0  0  0  0  0  0  0  0  0
   22.1548  -38.8379  -11.1438 C   0  0  0  0  0  0  0  0  0  0  0  0
   20.9654  -38.3750  -11.7002 C   0  0  0  0  0  0  0  0  0  0  0  0
   20.2423  -37.3673  -11.0695 C   0  0  0  0  0  0  0  0  0  0  0  0
   24.1058  -38.8597   -9.2591 Cl  0  0  0  0  0  0  0  0  0  0  0  0
   18.1834  -35.3474  -11.1614 O   0  0  0  0  0  0  0  0  0  0  0  0
   13.1070  -34.2391  -13.8763 H   0  0  0  0  0  0  0  0  0  0  0  0
   14.4405  -32.5942  -12.7879 H   0  0  0  0  0  0  0  0  0  0  0  0
   14.8147  -37.1930  -11.5196 H   0  0  0  0  0  0  0  0  0  0  0  0
   16.7834  -33.2642  -10.0866 H   0  0  0  0  0  0  0  0  0  0  0  0
   16.8001  -32.3837  -11.4618 H   0  0  0  0  0  0  0  0  0  0  0  0
   15.6070  -32.1670  -10.3680 H   0  0  0  0  0  0  0  0  0  0  0  0
   15.8935  -35.8846   -9.2036 H   0  0  0  0  0  0  0  0  0  0  0  0
   18.4144  -37.0959   -8.7377 H   0  0  0  0  0  0  0  0  0  0  0  0
   18.2585  -35.6015   -8.0980 H   0  0  0  0  0  0  0  0  0  0  0  0
   20.4260  -35.0025   -8.8770 H   0  0  0  0  0  0  0  0  0  0  0  0
   22.2603  -36.8622   -8.4713 H   0  0  0  0  0  0  0  0  0  0  0  0
   22.6691  -39.5674  -11.5949 H   0  0  0  0  0  0  0  0  0  0  0  0
   20.6296  -38.7681  -12.5562 H   0  0  0  0  0  0  0  0  0  0  0  0
   19.3929  -37.0286  -11.4742 H   0  0  0  0  0  0  0  0  0  0  0  0
  1  2  2  0  0  0  0
  1  6  1  0  0  0  0
  1 24  1  0  0  0  0
  2  3  1  0  0  0  0
  2 25  1  0  0  0  0
  3  4  2  0  0  0  0
  3 11  1  0  0  0  0
  4  5  1  0  0  0  0
  4 12  1  0  0  0  0
  5  6  2  0  0  0  0
  5 26  1  0  0  0  0
  6  7  1  0  0  0  0
  7  8  1  0  0  0  0
  7  9  1  0  0  0  0
  7 10  1  0  0  0  0
 11 27  1  0  0  0  0
 11 28  1  0  0  0  0
 11 29  1  0  0  0  0
 12 13  1  0  0  0  0
 12 30  1  0  0  0  0
 13 14  1  0  0  0  0
 13 23  2  0  0  0  0
 14 15  1  0  0  0  0
 14 31  1  0  0  0  0
 14 32  1  0  0  0  0
 15 16  1  0  0  0  0
 15 33  1  0  0  0  0
 16 17  2  0  0  0  0
 16 21  1  0  0  0  0
 17 18  1  0  0  0  0
 17 34  1  0  0  0  0
 18 19  2  0  0  0  0
 18 22  1  0  0  0  0
 19 20  1  0  0  0  0
 19 35  1  0  0  0  0
 20 21  2  0  0  0  0
 20 36  1  0  0  0  0
 21 37  1  0  0  0  0
M  END
> <BIOSOLVEIT.HYDE_ESTIMATED_AFFINITY_LOWER_BOUNDARY [nM]>
1239079851.957931

> <BIOSOLVEIT.HYDE_ESTIMATED_AFFINITY_UPPER_BOUNDARY [nM]>
123109909311.894974

> <BIOSOLVEIT.HYDE_LIGAND_EFFICIENCY range: ++, +, 0, -, -->
--

> <BIOSOLVEIT.HYDE_LIGAND_LIPOPHILIC_EFFICIENCY range: ++, +, 0, -, -->
--

> <BIOSOLVEIT.INTER_CLASH range: red, yellow, green>
green

> <BIOSOLVEIT.INTRA_CLASH range: red, yellow, green>
green

> <BIOSOLVEIT.LOGP>
4.71782

> <BIOSOLVEIT.MOLECULAR WEIGHT>
342.747

> <BIOSOLVEIT.MOLECULE_CHECKSUM>
Ni4yMzE0MTsw

> <BIOSOLVEIT.TORSION_QUALITY range: red, yellow, green, not rotatable>
green

> <BIOSOLVEIT.TPSA>
41.13

$$$$
Z1315931726.****
b8Hydescor01032215413D 1   1.00000     0.00000     0
Hydescorer 1.1.2 b8048283
 37 38  0  0  0  0            999 V2000
   17.5428  -40.8039  -12.9743 C   0  0  0  0  0  0  0  0  0  0  0  0
   18.1016  -39.5772  -12.6219 C   0  0  0  0  0  0  0  0  0  0  0  0
   17.3273  -38.5878  -12.0227 C   0  0  0  0  0  0  0  0  0  0  0  0
   15.9765  -38.8595  -11.7789 C   0  0  0  0  0  0  0  0  0  0  0  0
   15.4146  -40.0952  -12.1012 C   0  0  0  0  0  0  0  0  0  0  0  0
   16.1902  -41.0752  -12.7266 C   0  0  0  0  0  0  0  0  0  0  0  0
   15.5802  -42.4265  -13.1172 C   0  0  0  0  0  0  0  0  0  0  0  0
   14.4039  -42.6165  -12.4851 F   0  0  0  0  0  0  0  0  0  0  0  0
   15.3711  -42.4860  -14.4456 F   0  0  0  0  0  0  0  0  0  0  0  0
   16.4251  -43.4090  -12.7654 F   0  0  0  0  0  0  0  0  0  0  0  0
   17.9527  -37.2519  -11.6579 C   0  0  0  0  0  0  0  0  0  0  0  0
   15.1685  -37.8631  -11.1948 N   0  0  0  0  0  0  0  0  0  0  0  0
   14.4036  -36.9399  -11.8512 C   0  0  0  0  0  0  0  0  0  0  0  0
   13.5536  -35.8898  -11.1199 C   0  0  0  0  0  0  0  0  0  0  0  0
   13.7996  -34.5333  -11.7000 N   0  0  0  0  0  0  0  0  0  0  0  0
   14.7375  -33.7170  -11.0615 C   0  0  0  0  0  0  0  0  0  0  0  0
   14.7563  -32.3622  -11.3840 C   0  0  0  0  0  0  0  0  0  0  0  0
   15.6453  -31.5158  -10.7276 C   0  0  0  0  0  0  0  0  0  0  0  0
   16.5249  -32.0211   -9.7672 C   0  0  0  0  0  0  0  0  0  0  0  0
   16.5176  -33.3815   -9.4700 C   0  0  0  0  0  0  0  0  0  0  0  0
   15.6308  -34.2355  -10.1183 C   0  0  0  0  0  0  0  0  0  0  0  0
   15.6519  -29.8219  -11.0941 Cl  0  0  0  0  0  0  0  0  0  0  0  0
   14.4191  -37.0340  -13.0584 O   0  0  0  0  0  0  0  0  0  0  0  0
   18.1141  -41.4998  -13.4095 H   0  0  0  0  0  0  0  0  0  0  0  0
   19.0703  -39.4057  -12.8014 H   0  0  0  0  0  0  0  0  0  0  0  0
   14.4560  -40.2798  -11.8844 H   0  0  0  0  0  0  0  0  0  0  0  0
   17.2610  -36.6630  -11.2399 H   0  0  0  0  0  0  0  0  0  0  0  0
   18.7001  -37.3996  -11.0102 H   0  0  0  0  0  0  0  0  0  0  0  0
   18.3087  -36.8139  -12.4834 H   0  0  0  0  0  0  0  0  0  0  0  0
   15.1532  -37.8279  -10.1955 H   0  0  0  0  0  0  0  0  0  0  0  0
   13.7978  -35.8838  -10.1501 H   0  0  0  0  0  0  0  0  0  0  0  0
   12.5857  -36.1210  -11.2185 H   0  0  0  0  0  0  0  0  0  0  0  0
   13.3109  -34.2218  -12.5150 H   0  0  0  0  0  0  0  0  0  0  0  0
   14.1369  -32.0008  -12.0809 H   0  0  0  0  0  0  0  0  0  0  0  0
   17.1578  -31.4079   -9.2947 H   0  0  0  0  0  0  0  0  0  0  0  0
   17.1519  -33.7459   -8.7882 H   0  0  0  0  0  0  0  0  0  0  0  0
   15.6322  -35.2139   -9.9113 H   0  0  0  0  0  0  0  0  0  0  0  0
  1  2  2  0  0  0  0
  1  6  1  0  0  0  0
  1 24  1  0  0  0  0
  2  3  1  0  0  0  0
  2 25  1  0  0  0  0
  3  4  2  0  0  0  0
  3 11  1  0  0  0  0
  4  5  1  0  0  0  0
  4 12  1  0  0  0  0
  5  6  2  0  0  0  0
  5 26  1  0  0  0  0
  6  7  1  0  0  0  0
  7  8  1  0  0  0  0
  7  9  1  0  0  0  0
  7 10  1  0  0  0  0
 11 27  1  0  0  0  0
 11 28  1  0  0  0  0
 11 29  1  0  0  0  0
 12 13  1  0  0  0  0
 12 30  1  0  0  0  0
 13 14  1  0  0  0  0
 13 23  2  0  0  0  0
 14 15  1  0  0  0  0
 14 31  1  0  0  0  0
 14 32  1  0  0  0  0
 15 16  1  0  0  0  0
 15 33  1  0  0  0  0
 16 17  2  0  0  0  0
 16 21  1  0  0  0  0
 17 18  1  0  0  0  0
 17 34  1  0  0  0  0
 18 19  2  0  0  0  0
 18 22  1  0  0  0  0
 19 20  1  0  0  0  0
 19 35  1  0  0  0  0
 20 21  2  0  0  0  0
 20 36  1  0  0  0  0
 21 37  1  0  0  0  0
M  END
> <BIOSOLVEIT.HYDE_ESTIMATED_AFFINITY_LOWER_BOUNDARY [nM]>
181492926.752276

> <BIOSOLVEIT.HYDE_ESTIMATED_AFFINITY_UPPER_BOUNDARY [nM]>
18032395343.945671

> <BIOSOLVEIT.HYDE_LIGAND_EFFICIENCY range: ++, +, 0, -, -->
--

> <BIOSOLVEIT.HYDE_LIGAND_LIPOPHILIC_EFFICIENCY range: ++, +, 0, -, -->
--

> <BIOSOLVEIT.INTER_CLASH range: red, yellow, green>
green

> <BIOSOLVEIT.INTRA_CLASH range: red, yellow, green>
green

> <BIOSOLVEIT.LOGP>
4.71782

> <BIOSOLVEIT.MOLECULAR WEIGHT>
342.747

> <BIOSOLVEIT.MOLECULE_CHECKSUM>
MS40Njk1Njsw

> <BIOSOLVEIT.TORSION_QUALITY range: red, yellow, green, not rotatable>
yellow

> <BIOSOLVEIT.TPSA>
41.13

$$$$
G8.sdf
b8Hydescor01032215413D 1   1.00000     0.00000     0
Hydescorer 1.1.2 b8048283
 60 63  0  0  0  0            999 V2000
   15.2093  -32.6402  -13.2515 C   0  0  0  0  0  0  0  0  0  0  0  0
   14.6393  -33.8341  -13.4327 N   0  0  0  0  0  0  0  0  0  0  0  0
   14.2225  -34.5373  -12.3782 C   0  0  0  0  0  0  0  0  0  0  0  0
   14.3582  -34.0387  -11.0636 C   0  0  0  0  0  0  0  0  0  0  0  0
   14.9610  -32.7990  -10.8580 C   0  0  0  0  0  0  0  0  0  0  0  0
   15.3870  -32.0961  -11.9763 C   0  0  0  0  0  0  0  0  0  0  0  0
   16.1373  -30.5451  -11.7908 Cl  0  0  0  0  0  0  0  0  0  0  0  0
   13.8746  -34.8036   -9.9728 N   0  0  0  0  0  0  0  0  0  0  0  0
   14.7502  -35.5612   -9.0663 C   0  0  0  0  0  0  0  0  0  0  0  0
   15.9213  -36.0953   -9.8749 C   0  0  0  0  0  0  0  0  0  0  0  0
   17.0934  -35.4937  -10.2597 C   0  0  0  0  0  0  0  0  0  0  0  0
   17.9237  -36.3319  -11.0141 C   0  0  0  0  0  0  0  0  0  0  0  0
   17.3917  -37.5879  -11.2176 C   0  0  0  0  0  0  0  0  0  0  0  0
   15.8409  -37.7195  -10.4520 S   0  0  0  0  0  0  0  0  0  0  0  0
   17.9556  -38.7107  -11.9493 C   0  0  0  0  0  0  0  0  0  0  0  0
   17.0971  -39.6530  -12.4517 N   0  0  0  0  0  0  0  0  0  0  0  0
   17.4275  -40.8900  -13.2333 C   0  0  2  0  0  0  0  0  0  0  0  0
   17.0777  -40.7637  -14.7282 C   0  0  0  0  0  0  0  0  0  0  0  0
   17.6911  -41.3998  -15.5842 O   0  0  0  0  0  0  0  0  0  0  0  0
   16.0670  -39.9379  -15.1135 N   0  0  0  0  0  0  0  0  0  0  0  0
   15.6481  -39.7377  -16.4864 C   0  0  0  0  0  0  0  0  0  0  0  0
   19.1573  -38.8672  -12.1327 O   0  0  0  0  0  0  0  0  0  0  0  0
   13.5983  -35.8860  -12.6618 C   0  0  0  0  0  0  0  0  0  0  0  0
   15.8156  -38.3332  -16.9725 C   0  0  0  0  0  0  0  0  0  0  0  0
   14.4426  -38.8655  -16.6352 C   0  0  0  0  0  0  0  0  0  0  0  0
   15.5172  -32.1218  -14.0493 H   0  0  0  0  0  0  0  0  0  0  0  0
   15.0822  -32.4289   -9.9369 H   0  0  0  0  0  0  0  0  0  0  0  0
   12.8880  -34.8294   -9.8116 H   0  0  0  0  0  0  0  0  0  0  0  0
   14.2425  -36.3223   -8.6624 H   0  0  0  0  0  0  0  0  0  0  0  0
   15.0858  -34.9616   -8.3398 H   0  0  0  0  0  0  0  0  0  0  0  0
   17.3307  -34.5510  -10.0248 H   0  0  0  0  0  0  0  0  0  0  0  0
   18.8140  -36.0480  -11.3700 H   0  0  0  0  0  0  0  0  0  0  0  0
   16.1256  -39.4960  -12.2746 H   0  0  0  0  0  0  0  0  0  0  0  0
   16.7235  -42.1429  -12.6433 C   0  0  0  0  0  0  0  0  0  0  0  0
   15.5798  -39.4343  -14.4000 H   0  0  0  0  0  0  0  0  0  0  0  0
   15.7779  -40.4855  -17.1375 H   0  0  0  0  0  0  0  0  0  0  0  0
   13.3272  -36.3156  -11.8004 H   0  0  0  0  0  0  0  0  0  0  0  0
   12.7928  -35.7652  -13.2421 H   0  0  0  0  0  0  0  0  0  0  0  0
   14.2623  -36.4687  -13.1304 H   0  0  0  0  0  0  0  0  0  0  0  0
   15.3164  -42.3216  -13.2662 C   0  0  0  0  0  0  0  0  0  0  0  0
   16.6333  -42.0335  -11.6534 H   0  0  0  0  0  0  0  0  0  0  0  0
   17.2754  -42.9532  -12.8402 H   0  0  0  0  0  0  0  0  0  0  0  0
   14.8325  -43.7654  -13.0970 C   0  0  0  0  0  0  0  0  0  0  0  0
   14.1894  -41.5689  -12.5450 C   0  0  0  0  0  0  0  0  0  0  0  0
   13.8556  -42.4148  -11.3142 C   0  0  0  0  0  0  0  0  0  0  0  0
   14.2625  -43.8468  -11.6773 C   0  0  0  0  0  0  0  0  0  0  0  0
   15.3330  -42.0738  -14.2349 H   0  0  0  0  0  0  0  0  0  0  0  0
   15.5949  -44.4036  -13.2039 H   0  0  0  0  0  0  0  0  0  0  0  0
   14.1239  -43.9770  -13.7701 H   0  0  0  0  0  0  0  0  0  0  0  0
   13.3893  -41.4849  -13.1389 H   0  0  0  0  0  0  0  0  0  0  0  0
   14.4975  -40.6581  -12.2701 H   0  0  0  0  0  0  0  0  0  0  0  0
   12.8767  -42.3698  -11.1144 H   0  0  0  0  0  0  0  0  0  0  0  0
   14.3728  -42.0954  -10.5201 H   0  0  0  0  0  0  0  0  0  0  0  0
   14.9564  -44.1844  -11.0414 H   0  0  0  0  0  0  0  0  0  0  0  0
   13.4668  -44.4521  -11.6548 H   0  0  0  0  0  0  0  0  0  0  0  0
   18.4143  -41.0368  -13.1647 H   0  0  0  0  0  0  0  0  0  0  0  0
   16.0652  -38.1593  -17.9250 H   0  0  0  0  0  0  0  0  0  0  0  0
   16.2453  -37.6476  -16.3849 H   0  0  0  0  0  0  0  0  0  0  0  0
   13.9619  -38.5328  -15.8238 H   0  0  0  0  0  0  0  0  0  0  0  0
   13.7819  -39.0444  -17.3641 H   0  0  0  0  0  0  0  0  0  0  0  0
  1  2  2  0  0  0  0
  1  6  1  0  0  0  0
  1 26  1  0  0  0  0
  2  3  1  0  0  0  0
  3  4  2  0  0  0  0
  3 23  1  0  0  0  0
  4  5  1  0  0  0  0
  4  8  1  0  0  0  0
  5  6  2  0  0  0  0
  5 27  1  0  0  0  0
  6  7  1  0  0  0  0
  8  9  1  0  0  0  0
  8 28  1  0  0  0  0
  9 10  1  0  0  0  0
  9 29  1  0  0  0  0
  9 30  1  0  0  0  0
 10 11  2  0  0  0  0
 10 14  1  0  0  0  0
 11 12  1  0  0  0  0
 11 31  1  0  0  0  0
 12 13  2  0  0  0  0
 12 32  1  0  0  0  0
 13 14  1  0  0  0  0
 13 15  1  0  0  0  0
 15 16  1  0  0  0  0
 15 22  2  0  0  0  0
 16 17  1  0  0  0  0
 16 33  1  0  0  0  0
 17 18  1  0  0  0  0
 17 34  1  0  0  0  0
 17 56  1  0  0  0  0
 18 19  2  0  0  0  0
 18 20  1  0  0  0  0
 20 21  1  0  0  0  0
 20 35  1  0  0  0  0
 21 24  1  0  0  0  0
 21 25  1  0  0  0  0
 21 36  1  0  0  0  0
 23 37  1  0  0  0  0
 23 38  1  0  0  0  0
 23 39  1  0  0  0  0
 24 25  1  0  0  0  0
 24 57  1  0  0  0  0
 24 58  1  0  0  0  0
 25 59  1  0  0  0  0
 25 60  1  0  0  0  0
 34 40  1  0  0  0  0
 34 41  1  0  0  0  0
 34 42  1  0  0  0  0
 40 43  1  0  0  0  0
 40 44  1  0  0  0  0
 40 47  1  0  0  0  0
 43 46  1  0  0  0  0
 43 48  1  0  0  0  0
 43 49  1  0  0  0  0
 44 45  1  0  0  0  0
 44 50  1  0  0  0  0
 44 51  1  0  0  0  0
 45 46  1  0  0  0  0
 45 52  1  0  0  0  0
 45 53  1  0  0  0  0
 46 54  1  0  0  0  0
 46 55  1  0  0  0  0
M  END
> <BIOSOLVEIT.HYDE_ESTIMATED_AFFINITY_LOWER_BOUNDARY [nM]>
4917545.224398

> <BIOSOLVEIT.HYDE_ESTIMATED_AFFINITY_UPPER_BOUNDARY [nM]>
488587192.872315

> <BIOSOLVEIT.HYDE_LIGAND_EFFICIENCY range: ++, +, 0, -, -->
--

> <BIOSOLVEIT.HYDE_LIGAND_LIPOPHILIC_EFFICIENCY range: ++, +, 0, -, -->
--

> <BIOSOLVEIT.INTER_CLASH range: red, yellow, green>
green

> <BIOSOLVEIT.INTRA_CLASH range: red, yellow, green>
green

> <BIOSOLVEIT.LOGP>
4.67432

> <BIOSOLVEIT.MOLECULAR WEIGHT>
461.026

> <BIOSOLVEIT.MOLECULE_CHECKSUM>
LTcuNDc1NTI7MC4yNDExNDY=

> <BIOSOLVEIT.TORSION_QUALITY range: red, yellow, green, not rotatable>
red

> <BIOSOLVEIT.TPSA>
83.12

$$$$
G8.sdf
b8Hydescor01032215413D 1   1.00000     0.00000     0
Hydescorer 1.1.2 b8048283
 60 63  0  0  0  0            999 V2000
   15.0386  -33.1288  -13.5613 C   0  0  0  0  0  0  0  0  0  0  0  0
   15.4154  -33.9634  -14.5332 N   0  0  0  0  0  0  0  0  0  0  0  0
   15.7048  -35.2330  -14.2422 C   0  0  0  0  0  0  0  0  0  0  0  0
   15.6079  -35.7235  -12.9212 C   0  0  0  0  0  0  0  0  0  0  0  0
   15.2265  -34.8616  -11.8946 C   0  0  0  0  0  0  0  0  0  0  0  0
   14.9371  -33.5466  -12.2312 C   0  0  0  0  0  0  0  0  0  0  0  0
   14.4494  -32.4252  -11.0034 Cl  0  0  0  0  0  0  0  0  0  0  0  0
   15.8945  -37.0867  -12.6594 N   0  0  0  0  0  0  0  0  0  0  0  0
   16.9364  -37.5269  -11.7196 C   0  0  0  0  0  0  0  0  0  0  0  0
   18.2059  -37.7957  -12.5113 C   0  0  0  0  0  0  0  0  0  0  0  0
   18.3993  -38.4602  -13.6966 C   0  0  0  0  0  0  0  0  0  0  0  0
   19.7408  -38.4977  -14.0969 C   0  0  0  0  0  0  0  0  0  0  0  0
   20.5914  -37.8624  -13.2167 C   0  0  0  0  0  0  0  0  0  0  0  0
   19.7005  -37.2082  -11.8800 S   0  0  0  0  0  0  0  0  0  0  0  0
   22.0347  -37.7050  -13.2946 C   0  0  0  0  0  0  0  0  0  0  0  0
   22.8162  -38.8222  -13.1591 N   0  0  0  0  0  0  0  0  0  0  0  0
   24.3124  -38.9216  -13.2011 C   0  0  2  0  0  0  0  0  0  0  0  0
   24.8816  -38.7745  -14.6249 C   0  0  0  0  0  0  0  0  0  0  0  0
   25.8838  -38.0961  -14.8458 O   0  0  0  0  0  0  0  0  0  0  0  0
   24.2704  -39.4110  -15.6610 N   0  0  0  0  0  0  0  0  0  0  0  0
   24.7127  -39.3474  -17.0396 C   0  0  0  0  0  0  0  0  0  0  0  0
   22.5921  -36.6266  -13.4641 O   0  0  0  0  0  0  0  0  0  0  0  0
   16.1360  -36.1148  -15.3936 C   0  0  0  0  0  0  0  0  0  0  0  0
   23.6648  -38.8632  -17.9907 C   0  0  0  0  0  0  0  0  0  0  0  0
   24.0347  -40.3272  -17.9434 C   0  0  0  0  0  0  0  0  0  0  0  0
   14.8234  -32.1796  -13.7911 H   0  0  0  0  0  0  0  0  0  0  0  0
   15.1637  -35.1795  -10.9485 H   0  0  0  0  0  0  0  0  0  0  0  0
   15.3614  -37.7843  -13.1380 H   0  0  0  0  0  0  0  0  0  0  0  0
   16.6430  -38.3630  -11.2560 H   0  0  0  0  0  0  0  0  0  0  0  0
   17.1051  -36.8115  -11.0416 H   0  0  0  0  0  0  0  0  0  0  0  0
   17.6567  -38.8759  -14.2218 H   0  0  0  0  0  0  0  0  0  0  0  0
   20.0511  -38.9412  -14.9377 H   0  0  0  0  0  0  0  0  0  0  0  0
   22.3262  -39.6817  -13.0136 H   0  0  0  0  0  0  0  0  0  0  0  0
   24.8133  -40.2549  -12.5809 C   0  0  0  0  0  0  0  0  0  0  0  0
   23.4601  -39.9603  -15.4570 H   0  0  0  0  0  0  0  0  0  0  0  0
   25.6673  -39.1122  -17.2229 H   0  0  0  0  0  0  0  0  0  0  0  0
   16.3245  -37.0366  -15.0550 H   0  0  0  0  0  0  0  0  0  0  0  0
   15.4058  -36.1530  -16.0758 H   0  0  0  0  0  0  0  0  0  0  0  0
   16.9628  -35.7375  -15.8109 H   0  0  0  0  0  0  0  0  0  0  0  0
   26.3608  -40.2767  -12.5120 C   0  0  0  0  0  0  0  0  0  0  0  0
   24.4987  -41.0184  -13.1449 H   0  0  0  0  0  0  0  0  0  0  0  0
   24.4419  -40.3477  -11.6571 H   0  0  0  0  0  0  0  0  0  0  0  0
   26.8721  -39.1943  -11.5557 C   0  0  0  0  0  0  0  0  0  0  0  0
   26.9614  -41.5278  -11.8557 C   0  0  0  0  0  0  0  0  0  0  0  0
   26.8033  -41.3145  -10.3486 C   0  0  0  0  0  0  0  0  0  0  0  0
   26.7574  -39.7955  -10.1513 C   0  0  0  0  0  0  0  0  0  0  0  0
   26.7495  -40.1441  -13.4238 H   0  0  0  0  0  0  0  0  0  0  0  0
   26.3105  -38.3702  -11.6292 H   0  0  0  0  0  0  0  0  0  0  0  0
   27.8242  -38.9683  -11.7616 H   0  0  0  0  0  0  0  0  0  0  0  0
   27.9278  -41.6190  -12.0962 H   0  0  0  0  0  0  0  0  0  0  0  0
   26.4668  -42.3467  -12.1466 H   0  0  0  0  0  0  0  0  0  0  0  0
   27.5804  -41.7073   -9.8568 H   0  0  0  0  0  0  0  0  0  0  0  0
   25.9561  -41.7347  -10.0234 H   0  0  0  0  0  0  0  0  0  0  0  0
   25.8943  -39.5247   -9.7250 H   0  0  0  0  0  0  0  0  0  0  0  0
   27.5205  -39.4946   -9.5793 H   0  0  0  0  0  0  0  0  0  0  0  0
   24.6809  -38.1737  -12.6490 H   0  0  0  0  0  0  0  0  0  0  0  0
   23.9235  -38.3065  -18.7801 H   0  0  0  0  0  0  0  0  0  0  0  0
   22.7768  -38.5596  -17.6454 H   0  0  0  0  0  0  0  0  0  0  0  0
   23.3920  -40.9943  -17.5667 H   0  0  0  0  0  0  0  0  0  0  0  0
   24.5387  -40.7412  -18.7014 H   0  0  0  0  0  0  0  0  0  0  0  0
  1  2  2  0  0  0  0
  1  6  1  0  0  0  0
  1 26  1  0  0  0  0
  2  3  1  0  0  0  0
  3  4  2  0  0  0  0
  3 23  1  0  0  0  0
  4  5  1  0  0  0  0
  4  8  1  0  0  0  0
  5  6  2  0  0  0  0
  5 27  1  0  0  0  0
  6  7  1  0  0  0  0
  8  9  1  0  0  0  0
  8 28  1  0  0  0  0
  9 10  1  0  0  0  0
  9 29  1  0  0  0  0
  9 30  1  0  0  0  0
 10 11  2  0  0  0  0
 10 14  1  0  0  0  0
 11 12  1  0  0  0  0
 11 31  1  0  0  0  0
 12 13  2  0  0  0  0
 12 32  1  0  0  0  0
 13 14  1  0  0  0  0
 13 15  1  0  0  0  0
 15 16  1  0  0  0  0
 15 22  2  0  0  0  0
 16 17  1  0  0  0  0
 16 33  1  0  0  0  0
 17 18  1  0  0  0  0
 17 34  1  0  0  0  0
 17 56  1  0  0  0  0
 18 19  2  0  0  0  0
 18 20  1  0  0  0  0
 20 21  1  0  0  0  0
 20 35  1  0  0  0  0
 21 24  1  0  0  0  0
 21 25  1  0  0  0  0
 21 36  1  0  0  0  0
 23 37  1  0  0  0  0
 23 38  1  0  0  0  0
 23 39  1  0  0  0  0
 24 25  1  0  0  0  0
 24 57  1  0  0  0  0
 24 58  1  0  0  0  0
 25 59  1  0  0  0  0
 25 60  1  0  0  0  0
 34 40  1  0  0  0  0
 34 41  1  0  0  0  0
 34 42  1  0  0  0  0
 40 43  1  0  0  0  0
 40 44  1  0  0  0  0
 40 47  1  0  0  0  0
 43 46  1  0  0  0  0
 43 48  1  0  0  0  0
 43 49  1  0  0  0  0
 44 45  1  0  0  0  0
 44 50  1  0  0  0  0
 44 51  1  0  0  0  0
 45 46  1  0  0  0  0
 45 52  1  0  0  0  0
 45 53  1  0  0  0  0
 46 54  1  0  0  0  0
 46 55  1  0  0  0  0
M  END
> <BIOSOLVEIT.HYDE_ESTIMATED_AFFINITY_LOWER_BOUNDARY [nM]>
1157971.423014

> <BIOSOLVEIT.HYDE_ESTIMATED_AFFINITY_UPPER_BOUNDARY [nM]>
115051307.345370

> <BIOSOLVEIT.HYDE_LIGAND_EFFICIENCY range: ++, +, 0, -, -->
--

> <BIOSOLVEIT.HYDE_LIGAND_LIPOPHILIC_EFFICIENCY range: ++, +, 0, -, -->
--

> <BIOSOLVEIT.INTER_CLASH range: red, yellow, green>
green

> <BIOSOLVEIT.INTRA_CLASH range: red, yellow, green>
green

> <BIOSOLVEIT.LOGP>
4.67432

> <BIOSOLVEIT.MOLECULAR WEIGHT>
461.026

> <BIOSOLVEIT.MOLECULE_CHECKSUM>
LTExLjA2MDQ7MC4zNTY3ODg=

> <BIOSOLVEIT.TORSION_QUALITY range: red, yellow, green, not rotatable>
yellow

> <BIOSOLVEIT.TPSA>
83.12

$$$$
G7.sdf
b8Hydescor01032215413D 1   1.00000     0.00000     0
Hydescorer 1.1.2 b8048283
 61 64  0  0  0  0            999 V2000
   15.5422  -31.5518  -12.2944 C   0  0  0  0  0  0  0  0  0  0  0  0
   14.9837  -32.5375  -13.0040 N   0  0  0  0  0  0  0  0  0  0  0  0
   14.4905  -33.6091  -12.3789 C   0  0  0  0  0  0  0  0  0  0  0  0
   14.5354  -33.7161  -10.9725 C   0  0  0  0  0  0  0  0  0  0  0  0
   15.1214  -32.7039  -10.2183 C   0  0  0  0  0  0  0  0  0  0  0  0
   15.6281  -31.6059  -10.8984 C   0  0  0  0  0  0  0  0  0  0  0  0
   16.3640  -30.3050  -10.0212 Cl  0  0  0  0  0  0  0  0  0  0  0  0
   14.0070  -34.8452  -10.3149 N   0  0  0  0  0  0  0  0  0  0  0  0
   14.8027  -35.4114   -9.2280 C   0  0  0  0  0  0  0  0  0  0  0  0
   15.9981  -36.0036   -9.9399 C   0  0  0  0  0  0  0  0  0  0  0  0
   17.1982  -35.4000  -10.2066 C   0  0  0  0  0  0  0  0  0  0  0  0
   18.1017  -36.2401  -10.8704 C   0  0  0  0  0  0  0  0  0  0  0  0
   17.5968  -37.5023  -11.1131 C   0  0  0  0  0  0  0  0  0  0  0  0
   15.9782  -37.6355  -10.4986 S   0  0  0  0  0  0  0  0  0  0  0  0
   18.2380  -38.6286  -11.7730 C   0  0  0  0  0  0  0  0  0  0  0  0
   17.4409  -39.5710  -12.3673 N   0  0  0  0  0  0  0  0  0  0  0  0
   17.8539  -40.8113  -13.1033 C   0  0  2  0  0  0  0  0  0  0  0  0
   17.7568  -40.6594  -14.6341 C   0  0  0  0  0  0  0  0  0  0  0  0
   18.4657  -41.3158  -15.3921 O   0  0  0  0  0  0  0  0  0  0  0  0
   16.8743  -39.7823  -15.1756 N   0  0  0  0  0  0  0  0  0  0  0  0
   16.7274  -39.5851  -16.6261 C   0  0  0  0  0  0  0  0  0  0  0  0
   19.4524  -38.7865  -11.8245 O   0  0  0  0  0  0  0  0  0  0  0  0
   13.8768  -34.6896  -13.2407 C   0  0  0  0  0  0  0  0  0  0  0  0
   15.5485  -40.4226  -17.2209 C   0  0  0  0  0  0  0  0  0  0  0  0
   15.9151  -38.2948  -16.9731 C   0  0  0  0  0  0  0  0  0  0  0  0
   14.7942  -39.1818  -17.2393 O   0  0  0  0  0  0  0  0  0  0  0  0
   15.9085  -30.7543  -12.7739 H   0  0  0  0  0  0  0  0  0  0  0  0
   15.1754  -32.7658   -9.2217 H   0  0  0  0  0  0  0  0  0  0  0  0
   13.1277  -35.2407  -10.5800 H   0  0  0  0  0  0  0  0  0  0  0  0
   14.2904  -36.1184   -8.7403 H   0  0  0  0  0  0  0  0  0  0  0  0
   15.0857  -34.7007   -8.5839 H   0  0  0  0  0  0  0  0  0  0  0  0
   17.4082  -34.4557   -9.9533 H   0  0  0  0  0  0  0  0  0  0  0  0
   19.0209  -35.9542  -11.1415 H   0  0  0  0  0  0  0  0  0  0  0  0
   16.4558  -39.4115  -12.3020 H   0  0  0  0  0  0  0  0  0  0  0  0
   17.0191  -42.0413  -12.6535 C   0  0  0  0  0  0  0  0  0  0  0  0
   16.2972  -39.2452  -14.5603 H   0  0  0  0  0  0  0  0  0  0  0  0
   17.5836  -39.6734  -17.1351 H   0  0  0  0  0  0  0  0  0  0  0  0
   13.5464  -35.4326  -12.6587 H   0  0  0  0  0  0  0  0  0  0  0  0
   13.1122  -34.3077  -13.7600 H   0  0  0  0  0  0  0  0  0  0  0  0
   14.5659  -35.0429  -13.8734 H   0  0  0  0  0  0  0  0  0  0  0  0
   15.1841  -41.1272  -16.6120 H   0  0  0  0  0  0  0  0  0  0  0  0
   15.7270  -40.8197  -18.1211 H   0  0  0  0  0  0  0  0  0  0  0  0
   16.2491  -37.7886  -17.7682 H   0  0  0  0  0  0  0  0  0  0  0  0
   15.7803  -37.6642  -16.2089 H   0  0  0  0  0  0  0  0  0  0  0  0
   15.7073  -42.1391  -13.4724 C   0  0  0  0  0  0  0  0  0  0  0  0
   16.7949  -41.9492  -11.6833 H   0  0  0  0  0  0  0  0  0  0  0  0
   17.5570  -42.8726  -12.7939 H   0  0  0  0  0  0  0  0  0  0  0  0
   15.1410  -43.5613  -13.4138 C   0  0  0  0  0  0  0  0  0  0  0  0
   14.5251  -41.3472  -12.8970 C   0  0  0  0  0  0  0  0  0  0  0  0
   13.9844  -42.2025  -11.7484 C   0  0  0  0  0  0  0  0  0  0  0  0
   14.3727  -43.6442  -12.0908 C   0  0  0  0  0  0  0  0  0  0  0  0
   15.8722  -41.8721  -14.4218 H   0  0  0  0  0  0  0  0  0  0  0  0
   15.8817  -44.2330  -13.4301 H   0  0  0  0  0  0  0  0  0  0  0  0
   14.5262  -43.7244  -14.1854 H   0  0  0  0  0  0  0  0  0  0  0  0
   13.8212  -41.2128  -13.5946 H   0  0  0  0  0  0  0  0  0  0  0  0
   14.8316  -40.4581  -12.5571 H   0  0  0  0  0  0  0  0  0  0  0  0
   12.9903  -42.1143  -11.6854 H   0  0  0  0  0  0  0  0  0  0  0  0
   14.3992  -41.9257  -10.8816 H   0  0  0  0  0  0  0  0  0  0  0  0
   14.9536  -44.0288  -11.3734 H   0  0  0  0  0  0  0  0  0  0  0  0
   13.5550  -44.2100  -12.1969 H   0  0  0  0  0  0  0  0  0  0  0  0
   18.8106  -40.9944  -12.8765 H   0  0  0  0  0  0  0  0  0  0  0  0
  1  2  2  0  0  0  0
  1  6  1  0  0  0  0
  1 27  1  0  0  0  0
  2  3  1  0  0  0  0
  3  4  2  0  0  0  0
  3 23  1  0  0  0  0
  4  5  1  0  0  0  0
  4  8  1  0  0  0  0
  5  6  2  0  0  0  0
  5 28  1  0  0  0  0
  6  7  1  0  0  0  0
  8  9  1  0  0  0  0
  8 29  1  0  0  0  0
  9 10  1  0  0  0  0
  9 30  1  0  0  0  0
  9 31  1  0  0  0  0
 10 11  2  0  0  0  0
 10 14  1  0  0  0  0
 11 12  1  0  0  0  0
 11 32  1  0  0  0  0
 12 13  2  0  0  0  0
 12 33  1  0  0  0  0
 13 14  1  0  0  0  0
 13 15  1  0  0  0  0
 15 16  1  0  0  0  0
 15 22  2  0  0  0  0
 16 17  1  0  0  0  0
 16 34  1  0  0  0  0
 17 18  1  0  0  0  0
 17 35  1  0  0  0  0
 17 61  1  0  0  0  0
 18 19  2  0  0  0  0
 18 20  1  0  0  0  0
 20 21  1  0  0  0  0
 20 36  1  0  0  0  0
 21 24  1  0  0  0  0
 21 25  1  0  0  0  0
 21 37  1  0  0  0  0
 23 38  1  0  0  0  0
 23 39  1  0  0  0  0
 23 40  1  0  0  0  0
 24 26  1  0  0  0  0
 24 41  1  0  0  0  0
 24 42  1  0  0  0  0
 25 26  1  0  0  0  0
 25 43  1  0  0  0  0
 25 44  1  0  0  0  0
 35 45  1  0  0  0  0
 35 46  1  0  0  0  0
 35 47  1  0  0  0  0
 45 48  1  0  0  0  0
 45 49  1  0  0  0  0
 45 52  1  0  0  0  0
 48 51  1  0  0  0  0
 48 53  1  0  0  0  0
 48 54  1  0  0  0  0
 49 50  1  0  0  0  0
 49 55  1  0  0  0  0
 49 56  1  0  0  0  0
 50 51  1  0  0  0  0
 50 57  1  0  0  0  0
 50 58  1  0  0  0  0
 51 59  1  0  0  0  0
 51 60  1  0  0  0  0
M  END
> <BIOSOLVEIT.HYDE_ESTIMATED_AFFINITY_LOWER_BOUNDARY [nM]>
55083117.290556

> <BIOSOLVEIT.HYDE_ESTIMATED_AFFINITY_UPPER_BOUNDARY [nM]>
5472833379.980641

> <BIOSOLVEIT.HYDE_LIGAND_EFFICIENCY range: ++, +, 0, -, -->
--

> <BIOSOLVEIT.HYDE_LIGAND_LIPOPHILIC_EFFICIENCY range: ++, +, 0, -, -->
--

> <BIOSOLVEIT.INTER_CLASH range: red, yellow, green>
green

> <BIOSOLVEIT.INTRA_CLASH range: red, yellow, green>
green

> <BIOSOLVEIT.LOGP>
3.91072

> <BIOSOLVEIT.MOLECULAR WEIGHT>
477.025

> <BIOSOLVEIT.MOLECULE_CHECKSUM>
LTEuNDg2Mjg7MC4wNDY0NDYy

> <BIOSOLVEIT.TORSION_QUALITY range: red, yellow, green, not rotatable>
red

> <BIOSOLVEIT.TPSA>
92.35

$$$$
G7.sdf
b8Hydescor01032215413D 1   1.00000     0.00000     0
Hydescorer 1.1.2 b8048283
 61 64  0  0  0  0            999 V2000
   19.6080  -37.9581  -11.5976 C   0  0  0  0  0  0  0  0  0  0  0  0
   19.2265  -37.4480  -10.4222 N   0  0  0  0  0  0  0  0  0  0  0  0
   18.4214  -36.3837  -10.3899 C   0  0  0  0  0  0  0  0  0  0  0  0
   17.9509  -35.7903  -11.5808 C   0  0  0  0  0  0  0  0  0  0  0  0
   18.3453  -36.3022  -12.8134 C   0  0  0  0  0  0  0  0  0  0  0  0
   19.1855  -37.4062  -12.8125 C   0  0  0  0  0  0  0  0  0  0  0  0
   19.7091  -38.0999  -14.3118 Cl  0  0  0  0  0  0  0  0  0  0  0  0
   17.0949  -34.6713  -11.5432 N   0  0  0  0  0  0  0  0  0  0  0  0
   15.7637  -34.8744  -10.9761 C   0  0  0  0  0  0  0  0  0  0  0  0
   15.3582  -36.2300  -11.5092 C   0  0  0  0  0  0  0  0  0  0  0  0
   14.9575  -36.5447  -12.7806 C   0  0  0  0  0  0  0  0  0  0  0  0
   14.6686  -37.9056  -12.9457 C   0  0  0  0  0  0  0  0  0  0  0  0
   14.8522  -38.6467  -11.7951 C   0  0  0  0  0  0  0  0  0  0  0  0
   15.3964  -37.6277  -10.4989 S   0  0  0  0  0  0  0  0  0  0  0  0
   14.6530  -40.0725  -11.5883 C   0  0  0  0  0  0  0  0  0  0  0  0
   15.4862  -40.9442  -12.2382 N   0  0  0  0  0  0  0  0  0  0  0  0
   15.4866  -42.4436  -12.1913 C   0  0  2  0  0  0  0  0  0  0  0  0
   16.7900  -43.0241  -11.6079 C   0  0  0  0  0  0  0  0  0  0  0  0
   16.7889  -44.0370  -10.9138 O   0  0  0  0  0  0  0  0  0  0  0  0
   17.9763  -42.4133  -11.8543 N   0  0  0  0  0  0  0  0  0  0  0  0
   19.2581  -42.9104  -11.3308 C   0  0  0  0  0  0  0  0  0  0  0  0
   13.7783  -40.5405  -10.8686 O   0  0  0  0  0  0  0  0  0  0  0  0
   18.0316  -35.8539   -9.0280 C   0  0  0  0  0  0  0  0  0  0  0  0
   20.0640  -43.7135  -12.4034 C   0  0  0  0  0  0  0  0  0  0  0  0
   20.3824  -41.8245  -11.3770 C   0  0  0  0  0  0  0  0  0  0  0  0
   20.8833  -42.5234  -12.5493 O   0  0  0  0  0  0  0  0  0  0  0  0
   20.2115  -38.7553  -11.6092 H   0  0  0  0  0  0  0  0  0  0  0  0
   18.0341  -35.8889  -13.6692 H   0  0  0  0  0  0  0  0  0  0  0  0
   17.3854  -33.7790  -11.8888 H   0  0  0  0  0  0  0  0  0  0  0  0
   15.1310  -34.1645  -11.2854 H   0  0  0  0  0  0  0  0  0  0  0  0
   15.7974  -34.8785   -9.9767 H   0  0  0  0  0  0  0  0  0  0  0  0
   14.8793  -35.8717  -13.5160 H   0  0  0  0  0  0  0  0  0  0  0  0
   14.3599  -38.3010  -13.8108 H   0  0  0  0  0  0  0  0  0  0  0  0
   16.1850  -40.5268  -12.8192 H   0  0  0  0  0  0  0  0  0  0  0  0
   15.2346  -43.0542  -13.5969 C   0  0  0  0  0  0  0  0  0  0  0  0
   17.9795  -41.5871  -12.4178 H   0  0  0  0  0  0  0  0  0  0  0  0
   19.1817  -43.3764  -10.4493 H   0  0  0  0  0  0  0  0  0  0  0  0
   17.4313  -35.0617   -9.1378 H   0  0  0  0  0  0  0  0  0  0  0  0
   17.5518  -36.5675   -8.5176 H   0  0  0  0  0  0  0  0  0  0  0  0
   18.8540  -35.5822   -8.5282 H   0  0  0  0  0  0  0  0  0  0  0  0
   19.5427  -43.9677  -13.2180 H   0  0  0  0  0  0  0  0  0  0  0  0
   20.5468  -44.5161  -12.0529 H   0  0  0  0  0  0  0  0  0  0  0  0
   21.0004  -41.8250  -10.5908 H   0  0  0  0  0  0  0  0  0  0  0  0
   20.0610  -40.8931  -11.5478 H   0  0  0  0  0  0  0  0  0  0  0  0
   16.4603  -42.8284  -14.5176 C   0  0  0  0  0  0  0  0  0  0  0  0
   14.4323  -42.6188  -14.0053 H   0  0  0  0  0  0  0  0  0  0  0  0
   15.0699  -44.0361  -13.5040 H   0  0  0  0  0  0  0  0  0  0  0  0
   17.1226  -44.1643  -14.8696 C   0  0  0  0  0  0  0  0  0  0  0  0
   16.1271  -42.3070  -15.9222 C   0  0  0  0  0  0  0  0  0  0  0  0
   15.6439  -43.5304  -16.7052 C   0  0  0  0  0  0  0  0  0  0  0  0
   16.3018  -44.7374  -16.0296 C   0  0  0  0  0  0  0  0  0  0  0  0
   17.1198  -42.2229  -14.0721 H   0  0  0  0  0  0  0  0  0  0  0  0
   17.0979  -44.7837  -14.0848 H   0  0  0  0  0  0  0  0  0  0  0  0
   18.0714  -44.0204  -15.1508 H   0  0  0  0  0  0  0  0  0  0  0  0
   16.9405  -41.9152  -16.3521 H   0  0  0  0  0  0  0  0  0  0  0  0
   15.4075  -41.6141  -15.8766 H   0  0  0  0  0  0  0  0  0  0  0  0
   15.9286  -43.4674  -17.6617 H   0  0  0  0  0  0  0  0  0  0  0  0
   14.6477  -43.6040  -16.6581 H   0  0  0  0  0  0  0  0  0  0  0  0
   15.6055  -45.3677  -15.6865 H   0  0  0  0  0  0  0  0  0  0  0  0
   16.8968  -45.2169  -16.6746 H   0  0  0  0  0  0  0  0  0  0  0  0
   14.7346  -42.7289  -11.5971 H   0  0  0  0  0  0  0  0  0  0  0  0
  1  2  2  0  0  0  0
  1  6  1  0  0  0  0
  1 27  1  0  0  0  0
  2  3  1  0  0  0  0
  3  4  2  0  0  0  0
  3 23  1  0  0  0  0
  4  5  1  0  0  0  0
  4  8  1  0  0  0  0
  5  6  2  0  0  0  0
  5 28  1  0  0  0  0
  6  7  1  0  0  0  0
  8  9  1  0  0  0  0
  8 29  1  0  0  0  0
  9 10  1  0  0  0  0
  9 30  1  0  0  0  0
  9 31  1  0  0  0  0
 10 11  2  0  0  0  0
 10 14  1  0  0  0  0
 11 12  1  0  0  0  0
 11 32  1  0  0  0  0
 12 13  2  0  0  0  0
 12 33  1  0  0  0  0
 13 14  1  0  0  0  0
 13 15  1  0  0  0  0
 15 16  1  0  0  0  0
 15 22  2  0  0  0  0
 16 17  1  0  0  0  0
 16 34  1  0  0  0  0
 17 18  1  0  0  0  0
 17 35  1  0  0  0  0
 17 61  1  0  0  0  0
 18 19  2  0  0  0  0
 18 20  1  0  0  0  0
 20 21  1  0  0  0  0
 20 36  1  0  0  0  0
 21 24  1  0  0  0  0
 21 25  1  0  0  0  0
 21 37  1  0  0  0  0
 23 38  1  0  0  0  0
 23 39  1  0  0  0  0
 23 40  1  0  0  0  0
 24 26  1  0  0  0  0
 24 41  1  0  0  0  0
 24 42  1  0  0  0  0
 25 26  1  0  0  0  0
 25 43  1  0  0  0  0
 25 44  1  0  0  0  0
 35 45  1  0  0  0  0
 35 46  1  0  0  0  0
 35 47  1  0  0  0  0
 45 48  1  0  0  0  0
 45 49  1  0  0  0  0
 45 52  1  0  0  0  0
 48 51  1  0  0  0  0
 48 53  1  0  0  0  0
 48 54  1  0  0  0  0
 49 50  1  0  0  0  0
 49 55  1  0  0  0  0
 49 56  1  0  0  0  0
 50 51  1  0  0  0  0
 50 57  1  0  0  0  0
 50 58  1  0  0  0  0
 51 59  1  0  0  0  0
 51 60  1  0  0  0  0
M  END
> <BIOSOLVEIT.HYDE_ESTIMATED_AFFINITY_LOWER_BOUNDARY [nM]>
457192622.651828

> <BIOSOLVEIT.HYDE_ESTIMATED_AFFINITY_UPPER_BOUNDARY [nM]>
45424790197.173668

> <BIOSOLVEIT.HYDE_LIGAND_EFFICIENCY range: ++, +, 0, -, -->
--

> <BIOSOLVEIT.HYDE_LIGAND_LIPOPHILIC_EFFICIENCY range: ++, +, 0, -, -->
--

> <BIOSOLVEIT.INTER_CLASH range: red, yellow, green>
green

> <BIOSOLVEIT.INTRA_CLASH range: red, yellow, green>
green

> <BIOSOLVEIT.LOGP>
3.91072

> <BIOSOLVEIT.MOLECULAR WEIGHT>
477.025

> <BIOSOLVEIT.MOLECULE_CHECKSUM>
My43NTk4NDsw

> <BIOSOLVEIT.TORSION_QUALITY range: red, yellow, green, not rotatable>
red

> <BIOSOLVEIT.TPSA>
92.35

$$$$
G7.sdf
b8Hydescor01032215413D 1   1.00000     0.00000     0
Hydescorer 1.1.2 b8048283
 61 64  0  0  0  0            999 V2000
   15.1702  -31.5415  -11.3658 C   0  0  0  0  0  0  0  0  0  0  0  0
   14.5711  -32.7101  -11.6161 N   0  0  0  0  0  0  0  0  0  0  0  0
   14.9082  -33.7934  -10.9124 C   0  0  0  0  0  0  0  0  0  0  0  0
   15.8815  -33.7255   -9.8930 C   0  0  0  0  0  0  0  0  0  0  0  0
   16.5220  -32.5194   -9.6251 C   0  0  0  0  0  0  0  0  0  0  0  0
   16.1521  -31.4136  -10.3767 C   0  0  0  0  0  0  0  0  0  0  0  0
   16.9033  -29.8783  -10.0903 Cl  0  0  0  0  0  0  0  0  0  0  0  0
   16.2296  -34.8694   -9.1467 N   0  0  0  0  0  0  0  0  0  0  0  0
   17.6524  -35.1860   -9.0446 C   0  0  0  0  0  0  0  0  0  0  0  0
   17.8583  -36.2270  -10.1217 C   0  0  0  0  0  0  0  0  0  0  0  0
   18.9806  -36.4406  -10.8770 C   0  0  0  0  0  0  0  0  0  0  0  0
   18.8434  -37.5040  -11.7788 C   0  0  0  0  0  0  0  0  0  0  0  0
   17.6082  -38.1180  -11.7153 C   0  0  0  0  0  0  0  0  0  0  0  0
   16.6149  -37.3575  -10.5113 S   0  0  0  0  0  0  0  0  0  0  0  0
   17.1089  -39.2424  -12.4911 C   0  0  0  0  0  0  0  0  0  0  0  0
   17.2004  -39.1794  -13.8565 N   0  0  0  0  0  0  0  0  0  0  0  0
   16.7625  -40.1969  -14.8681 C   0  0  2  0  0  0  0  0  0  0  0  0
   17.5396  -40.0942  -16.1955 C   0  0  0  0  0  0  0  0  0  0  0  0
   18.3400  -39.1865  -16.4038 O   0  0  0  0  0  0  0  0  0  0  0  0
   17.3457  -41.0183  -17.1700 N   0  0  0  0  0  0  0  0  0  0  0  0
   18.0515  -40.9830  -18.4603 C   0  0  0  0  0  0  0  0  0  0  0  0
   16.6057  -40.2432  -11.9935 O   0  0  0  0  0  0  0  0  0  0  0  0
   14.1958  -35.0844  -11.2490 C   0  0  0  0  0  0  0  0  0  0  0  0
   18.7185  -42.3539  -18.8079 C   0  0  0  0  0  0  0  0  0  0  0  0
   17.0892  -41.2045  -19.6726 C   0  0  0  0  0  0  0  0  0  0  0  0
   17.6064  -42.5626  -19.7182 O   0  0  0  0  0  0  0  0  0  0  0  0
   14.9098  -30.7371  -11.8998 H   0  0  0  0  0  0  0  0  0  0  0  0
   17.2240  -32.4522   -8.9161 H   0  0  0  0  0  0  0  0  0  0  0  0
   15.5345  -35.4383   -8.7071 H   0  0  0  0  0  0  0  0  0  0  0  0
   17.8726  -35.5565   -8.1423 H   0  0  0  0  0  0  0  0  0  0  0  0
   18.2125  -34.3760   -9.2182 H   0  0  0  0  0  0  0  0  0  0  0  0
   19.8133  -35.8932  -10.7933 H   0  0  0  0  0  0  0  0  0  0  0  0
   19.5680  -37.7899  -12.4059 H   0  0  0  0  0  0  0  0  0  0  0  0
   17.6126  -38.3471  -14.2269 H   0  0  0  0  0  0  0  0  0  0  0  0
   15.2395  -40.0930  -15.1534 C   0  0  0  0  0  0  0  0  0  0  0  0
   16.6930  -41.7574  -17.0034 H   0  0  0  0  0  0  0  0  0  0  0  0
   18.6617  -40.1979  -18.5663 H   0  0  0  0  0  0  0  0  0  0  0  0
   14.5341  -35.8159  -10.6570 H   0  0  0  0  0  0  0  0  0  0  0  0
   13.2126  -34.9693  -11.1078 H   0  0  0  0  0  0  0  0  0  0  0  0
   14.3698  -35.3217  -12.2047 H   0  0  0  0  0  0  0  0  0  0  0  0
   18.7675  -43.0024  -18.0482 H   0  0  0  0  0  0  0  0  0  0  0  0
   19.6144  -42.2864  -19.2470 H   0  0  0  0  0  0  0  0  0  0  0  0
   17.2934  -40.6492  -20.4788 H   0  0  0  0  0  0  0  0  0  0  0  0
   16.1157  -41.1320  -19.4558 H   0  0  0  0  0  0  0  0  0  0  0  0
   14.8581  -38.6473  -15.5604 C   0  0  0  0  0  0  0  0  0  0  0  0
   14.7327  -40.3470  -14.3296 H   0  0  0  0  0  0  0  0  0  0  0  0
   15.0011  -40.7174  -15.8972 H   0  0  0  0  0  0  0  0  0  0  0  0
   13.4823  -38.6229  -16.2340 C   0  0  0  0  0  0  0  0  0  0  0  0
   14.6081  -37.6897  -14.3873 C   0  0  0  0  0  0  0  0  0  0  0  0
   13.2006  -38.0217  -13.8852 C   0  0  0  0  0  0  0  0  0  0  0  0
   12.4638  -38.6160  -15.0895 C   0  0  0  0  0  0  0  0  0  0  0  0
   15.5500  -38.2676  -16.1745 H   0  0  0  0  0  0  0  0  0  0  0  0
   13.3593  -39.4338  -16.8061 H   0  0  0  0  0  0  0  0  0  0  0  0
   13.3827  -37.8011  -16.7949 H   0  0  0  0  0  0  0  0  0  0  0  0
   14.6547  -36.7394  -14.6952 H   0  0  0  0  0  0  0  0  0  0  0  0
   15.2820  -37.8392  -13.6639 H   0  0  0  0  0  0  0  0  0  0  0  0
   12.7389  -37.1936  -13.5674 H   0  0  0  0  0  0  0  0  0  0  0  0
   13.2437  -38.6866  -13.1395 H   0  0  0  0  0  0  0  0  0  0  0  0
   12.1594  -39.5470  -14.8877 H   0  0  0  0  0  0  0  0  0  0  0  0
   11.6739  -38.0514  -15.3287 H   0  0  0  0  0  0  0  0  0  0  0  0
   16.9381  -41.1029  -14.4830 H   0  0  0  0  0  0  0  0  0  0  0  0
  1  2  2  0  0  0  0
  1  6  1  0  0  0  0
  1 27  1  0  0  0  0
  2  3  1  0  0  0  0
  3  4  2  0  0  0  0
  3 23  1  0  0  0  0
  4  5  1  0  0  0  0
  4  8  1  0  0  0  0
  5  6  2  0  0  0  0
  5 28  1  0  0  0  0
  6  7  1  0  0  0  0
  8  9  1  0  0  0  0
  8 29  1  0  0  0  0
  9 10  1  0  0  0  0
  9 30  1  0  0  0  0
  9 31  1  0  0  0  0
 10 11  2  0  0  0  0
 10 14  1  0  0  0  0
 11 12  1  0  0  0  0
 11 32  1  0  0  0  0
 12 13  2  0  0  0  0
 12 33  1  0  0  0  0
 13 14  1  0  0  0  0
 13 15  1  0  0  0  0
 15 16  1  0  0  0  0
 15 22  2  0  0  0  0
 16 17  1  0  0  0  0
 16 34  1  0  0  0  0
 17 18  1  0  0  0  0
 17 35  1  0  0  0  0
 17 61  1  0  0  0  0
 18 19  2  0  0  0  0
 18 20  1  0  0  0  0
 20 21  1  0  0  0  0
 20 36  1  0  0  0  0
 21 24  1  0  0  0  0
 21 25  1  0  0  0  0
 21 37  1  0  0  0  0
 23 38  1  0  0  0  0
 23 39  1  0  0  0  0
 23 40  1  0  0  0  0
 24 26  1  0  0  0  0
 24 41  1  0  0  0  0
 24 42  1  0  0  0  0
 25 26  1  0  0  0  0
 25 43  1  0  0  0  0
 25 44  1  0  0  0  0
 35 45  1  0  0  0  0
 35 46  1  0  0  0  0
 35 47  1  0  0  0  0
 45 48  1  0  0  0  0
 45 49  1  0  0  0  0
 45 52  1  0  0  0  0
 48 51  1  0  0  0  0
 48 53  1  0  0  0  0
 48 54  1  0  0  0  0
 49 50  1  0  0  0  0
 49 55  1  0  0  0  0
 49 56  1  0  0  0  0
 50 51  1  0  0  0  0
 50 57  1  0  0  0  0
 50 58  1  0  0  0  0
 51 59  1  0  0  0  0
 51 60  1  0  0  0  0
M  END
> <BIOSOLVEIT.HYDE_ESTIMATED_AFFINITY_LOWER_BOUNDARY [nM]>
218060084.217317

> <BIOSOLVEIT.HYDE_ESTIMATED_AFFINITY_UPPER_BOUNDARY [nM]>
21665558640.242947

> <BIOSOLVEIT.HYDE_LIGAND_EFFICIENCY range: ++, +, 0, -, -->
--

> <BIOSOLVEIT.HYDE_LIGAND_LIPOPHILIC_EFFICIENCY range: ++, +, 0, -, -->
--

> <BIOSOLVEIT.INTER_CLASH range: red, yellow, green>
green

> <BIOSOLVEIT.INTRA_CLASH range: red, yellow, green>
green

> <BIOSOLVEIT.LOGP>
3.91072

> <BIOSOLVEIT.MOLECULAR WEIGHT>
477.025

> <BIOSOLVEIT.MOLECULE_CHECKSUM>
MS45MjQ1OTsw

> <BIOSOLVEIT.TORSION_QUALITY range: red, yellow, green, not rotatable>
yellow

> <BIOSOLVEIT.TPSA>
92.35

$$$$
G7.sdf
b8Hydescor01032215413D 1   1.00000     0.00000     0
Hydescorer 1.1.2 b8048283
 61 64  0  0  0  0            999 V2000
   15.6576  -31.7179  -11.9931 C   0  0  0  0  0  0  0  0  0  0  0  0
   15.0267  -32.6019  -12.7726 N   0  0  0  0  0  0  0  0  0  0  0  0
   14.5235  -33.7175  -12.2394 C   0  0  0  0  0  0  0  0  0  0  0  0
   14.6332  -33.9774  -10.8567 C   0  0  0  0  0  0  0  0  0  0  0  0
   15.2949  -33.0728  -10.0316 C   0  0  0  0  0  0  0  0  0  0  0  0
   15.8099  -31.9254  -10.6172 C   0  0  0  0  0  0  0  0  0  0  0  0
   16.6384  -30.7524   -9.6472 Cl  0  0  0  0  0  0  0  0  0  0  0  0
   14.0943  -35.1525  -10.2956 N   0  0  0  0  0  0  0  0  0  0  0  0
   14.9530  -35.9059   -9.3846 C   0  0  0  0  0  0  0  0  0  0  0  0
   15.8128  -36.7314  -10.3148 C   0  0  0  0  0  0  0  0  0  0  0  0
   15.4237  -37.7784  -11.1074 C   0  0  0  0  0  0  0  0  0  0  0  0
   16.4727  -38.3152  -11.8650 C   0  0  0  0  0  0  0  0  0  0  0  0
   17.6787  -37.6747  -11.6590 C   0  0  0  0  0  0  0  0  0  0  0  0
   17.4918  -36.3865  -10.5100 S   0  0  0  0  0  0  0  0  0  0  0  0
   18.9724  -37.9523  -12.2629 C   0  0  0  0  0  0  0  0  0  0  0  0
   19.3560  -39.2601  -12.4007 N   0  0  0  0  0  0  0  0  0  0  0  0
   20.6270  -39.8021  -12.9850 C   0  0  2  0  0  0  0  0  0  0  0  0
   20.3866  -40.9715  -13.9602 C   0  0  0  0  0  0  0  0  0  0  0  0
   19.8458  -42.0120  -13.5960 O   0  0  0  0  0  0  0  0  0  0  0  0
   20.7777  -40.8679  -15.2554 N   0  0  0  0  0  0  0  0  0  0  0  0
   20.5808  -41.9425  -16.2408 C   0  0  0  0  0  0  0  0  0  0  0  0
   19.7428  -37.0823  -12.6524 O   0  0  0  0  0  0  0  0  0  0  0  0
   13.8263  -34.6775  -13.1774 C   0  0  0  0  0  0  0  0  0  0  0  0
   19.8218  -41.4458  -17.5144 C   0  0  0  0  0  0  0  0  0  0  0  0
   21.8393  -42.1627  -17.1422 C   0  0  0  0  0  0  0  0  0  0  0  0
   21.1162  -41.4351  -18.1725 O   0  0  0  0  0  0  0  0  0  0  0  0
   16.0307  -30.8862  -12.4040 H   0  0  0  0  0  0  0  0  0  0  0  0
   15.3956  -33.2438   -9.0516 H   0  0  0  0  0  0  0  0  0  0  0  0
   13.1664  -35.4569  -10.5112 H   0  0  0  0  0  0  0  0  0  0  0  0
   14.4098  -36.4929   -8.7843 H   0  0  0  0  0  0  0  0  0  0  0  0
   15.5138  -35.2906   -8.8308 H   0  0  0  0  0  0  0  0  0  0  0  0
   14.4861  -38.1244  -11.1418 H   0  0  0  0  0  0  0  0  0  0  0  0
   16.3594  -39.0855  -12.4926 H   0  0  0  0  0  0  0  0  0  0  0  0
   18.7043  -39.9420  -12.0688 H   0  0  0  0  0  0  0  0  0  0  0  0
   21.6143  -40.2524  -11.8739 C   0  0  0  0  0  0  0  0  0  0  0  0
   21.2201  -40.0222  -15.5539 H   0  0  0  0  0  0  0  0  0  0  0  0
   20.2094  -42.7854  -15.8514 H   0  0  0  0  0  0  0  0  0  0  0  0
   13.4961  -35.4675  -12.6608 H   0  0  0  0  0  0  0  0  0  0  0  0
   13.0526  -34.2163  -13.6118 H   0  0  0  0  0  0  0  0  0  0  0  0
   14.4691  -34.9833  -13.8797 H   0  0  0  0  0  0  0  0  0  0  0  0
   19.3889  -40.5489  -17.4231 H   0  0  0  0  0  0  0  0  0  0  0  0
   19.1634  -42.0968  -17.8922 H   0  0  0  0  0  0  0  0  0  0  0  0
   22.0375  -43.1178  -17.3621 H   0  0  0  0  0  0  0  0  0  0  0  0
   22.6728  -41.7155  -16.8176 H   0  0  0  0  0  0  0  0  0  0  0  0
   22.9488  -40.7379  -12.4939 C   0  0  0  0  0  0  0  0  0  0  0  0
   21.2032  -40.9999  -11.3522 H   0  0  0  0  0  0  0  0  0  0  0  0
   21.7966  -39.4811  -11.2641 H   0  0  0  0  0  0  0  0  0  0  0  0
   23.6438  -39.5938  -13.2390 C   0  0  0  0  0  0  0  0  0  0  0  0
   24.0379  -41.1070  -11.4774 C   0  0  0  0  0  0  0  0  0  0  0  0
   24.6283  -39.7733  -11.0127 C   0  0  0  0  0  0  0  0  0  0  0  0
   24.3845  -38.7923  -12.1637 C   0  0  0  0  0  0  0  0  0  0  0  0
   22.7824  -41.5037  -13.1151 H   0  0  0  0  0  0  0  0  0  0  0  0
   22.9697  -39.0179  -13.7015 H   0  0  0  0  0  0  0  0  0  0  0  0
   24.2896  -39.9563  -13.9111 H   0  0  0  0  0  0  0  0  0  0  0  0
   24.7426  -41.6704  -11.9087 H   0  0  0  0  0  0  0  0  0  0  0  0
   23.6417  -41.6025  -10.7045 H   0  0  0  0  0  0  0  0  0  0  0  0
   25.6080  -39.8679  -10.8361 H   0  0  0  0  0  0  0  0  0  0  0  0
   24.1687  -39.4584  -10.1823 H   0  0  0  0  0  0  0  0  0  0  0  0
   23.8250  -38.0234  -11.8542 H   0  0  0  0  0  0  0  0  0  0  0  0
   25.2536  -38.4497  -12.5203 H   0  0  0  0  0  0  0  0  0  0  0  0
   21.0641  -39.0637  -13.4985 H   0  0  0  0  0  0  0  0  0  0  0  0
  1  2  2  0  0  0  0
  1  6  1  0  0  0  0
  1 27  1  0  0  0  0
  2  3  1  0  0  0  0
  3  4  2  0  0  0  0
  3 23  1  0  0  0  0
  4  5  1  0  0  0  0
  4  8  1  0  0  0  0
  5  6  2  0  0  0  0
  5 28  1  0  0  0  0
  6  7  1  0  0  0  0
  8  9  1  0  0  0  0
  8 29  1  0  0  0  0
  9 10  1  0  0  0  0
  9 30  1  0  0  0  0
  9 31  1  0  0  0  0
 10 11  2  0  0  0  0
 10 14  1  0  0  0  0
 11 12  1  0  0  0  0
 11 32  1  0  0  0  0
 12 13  2  0  0  0  0
 12 33  1  0  0  0  0
 13 14  1  0  0  0  0
 13 15  1  0  0  0  0
 15 16  1  0  0  0  0
 15 22  2  0  0  0  0
 16 17  1  0  0  0  0
 16 34  1  0  0  0  0
 17 18  1  0  0  0  0
 17 35  1  0  0  0  0
 17 61  1  0  0  0  0
 18 19  2  0  0  0  0
 18 20  1  0  0  0  0
 20 21  1  0  0  0  0
 20 36  1  0  0  0  0
 21 24  1  0  0  0  0
 21 25  1  0  0  0  0
 21 37  1  0  0  0  0
 23 38  1  0  0  0  0
 23 39  1  0  0  0  0
 23 40  1  0  0  0  0
 24 26  1  0  0  0  0
 24 41  1  0  0  0  0
 24 42  1  0  0  0  0
 25 26  1  0  0  0  0
 25 43  1  0  0  0  0
 25 44  1  0  0  0  0
 35 45  1  0  0  0  0
 35 46  1  0  0  0  0
 35 47  1  0  0  0  0
 45 48  1  0  0  0  0
 45 49  1  0  0  0  0
 45 52  1  0  0  0  0
 48 51  1  0  0  0  0
 48 53  1  0  0  0  0
 48 54  1  0  0  0  0
 49 50  1  0  0  0  0
 49 55  1  0  0  0  0
 49 56  1  0  0  0  0
 50 51  1  0  0  0  0
 50 57  1  0  0  0  0
 50 58  1  0  0  0  0
 51 59  1  0  0  0  0
 51 60  1  0  0  0  0
M  END
> <BIOSOLVEIT.HYDE_ESTIMATED_AFFINITY_LOWER_BOUNDARY [nM]>
222496805.641760

> <BIOSOLVEIT.HYDE_ESTIMATED_AFFINITY_UPPER_BOUNDARY [nM]>
22106373145.734447

> <BIOSOLVEIT.HYDE_LIGAND_EFFICIENCY range: ++, +, 0, -, -->
--

> <BIOSOLVEIT.HYDE_LIGAND_LIPOPHILIC_EFFICIENCY range: ++, +, 0, -, -->
--

> <BIOSOLVEIT.INTER_CLASH range: red, yellow, green>
green

> <BIOSOLVEIT.INTRA_CLASH range: red, yellow, green>
green

> <BIOSOLVEIT.LOGP>
3.91072

> <BIOSOLVEIT.MOLECULAR WEIGHT>
477.025

> <BIOSOLVEIT.MOLECULE_CHECKSUM>
MS45NzQ1Mjsw

> <BIOSOLVEIT.TORSION_QUALITY range: red, yellow, green, not rotatable>
yellow

> <BIOSOLVEIT.TPSA>
92.35

$$$$
G7.sdf
b8Hydescor01032215413D 1   1.00000     0.00000     0
Hydescorer 1.1.2 b8048283
 61 64  0  0  0  0            999 V2000
   15.9724  -31.4640  -11.6754 C   0  0  0  0  0  0  0  0  0  0  0  0
   15.2806  -32.4920  -12.1772 N   0  0  0  0  0  0  0  0  0  0  0  0
   15.0126  -33.5504  -11.4090 C   0  0  0  0  0  0  0  0  0  0  0  0
   15.4368  -33.5999  -10.0640 C   0  0  0  0  0  0  0  0  0  0  0  0
   16.1661  -32.5428   -9.5276 C   0  0  0  0  0  0  0  0  0  0  0  0
   16.4313  -31.4598  -10.3531 C   0  0  0  0  0  0  0  0  0  0  0  0
   17.3274  -30.1056   -9.7477 Cl  0  0  0  0  0  0  0  0  0  0  0  0
   15.1457  -34.7154   -9.2533 N   0  0  0  0  0  0  0  0  0  0  0  0
   16.2515  -35.6218   -8.9520 C   0  0  0  0  0  0  0  0  0  0  0  0
   16.1833  -36.6412  -10.0666 C   0  0  0  0  0  0  0  0  0  0  0  0
   15.2230  -37.5960  -10.2714 C   0  0  0  0  0  0  0  0  0  0  0  0
   15.4525  -38.3714  -11.4155 C   0  0  0  0  0  0  0  0  0  0  0  0
   16.5953  -38.0090  -12.1007 C   0  0  0  0  0  0  0  0  0  0  0  0
   17.3834  -36.6821  -11.3051 S   0  0  0  0  0  0  0  0  0  0  0  0
   17.1476  -38.5819  -13.3181 C   0  0  0  0  0  0  0  0  0  0  0  0
   17.2021  -39.9465  -13.4257 N   0  0  0  0  0  0  0  0  0  0  0  0
   17.7208  -40.7718  -14.5659 C   0  0  2  0  0  0  0  0  0  0  0  0
   16.8342  -41.9951  -14.8713 C   0  0  0  0  0  0  0  0  0  0  0  0
   15.9276  -42.3371  -14.1168 O   0  0  0  0  0  0  0  0  0  0  0  0
   17.0472  -42.7256  -15.9949 N   0  0  0  0  0  0  0  0  0  0  0  0
   16.2411  -43.9041  -16.3498 C   0  0  0  0  0  0  0  0  0  0  0  0
   17.5722  -37.9134  -14.2537 O   0  0  0  0  0  0  0  0  0  0  0  0
   14.2303  -34.6808  -12.0394 C   0  0  0  0  0  0  0  0  0  0  0  0
   16.4481  -44.3363  -17.8383 C   0  0  0  0  0  0  0  0  0  0  0  0
   16.9236  -45.2443  -15.9218 C   0  0  0  0  0  0  0  0  0  0  0  0
   17.2947  -45.3959  -17.3193 O   0  0  0  0  0  0  0  0  0  0  0  0
   16.1673  -30.6768  -12.2605 H   0  0  0  0  0  0  0  0  0  0  0  0
   16.4876  -32.5631   -8.5809 H   0  0  0  0  0  0  0  0  0  0  0  0
   14.2245  -34.8791   -8.9004 H   0  0  0  0  0  0  0  0  0  0  0  0
   16.1245  -36.0573   -8.0608 H   0  0  0  0  0  0  0  0  0  0  0  0
   17.1256  -35.1363   -8.9642 H   0  0  0  0  0  0  0  0  0  0  0  0
   14.4380  -37.7264   -9.6658 H   0  0  0  0  0  0  0  0  0  0  0  0
   14.8489  -39.1135  -11.7069 H   0  0  0  0  0  0  0  0  0  0  0  0
   16.8505  -40.4590  -12.6423 H   0  0  0  0  0  0  0  0  0  0  0  0
   19.1778  -41.2431  -14.3072 C   0  0  0  0  0  0  0  0  0  0  0  0
   17.7860  -42.4503  -16.6099 H   0  0  0  0  0  0  0  0  0  0  0  0
   15.2812  -43.8343  -16.0786 H   0  0  0  0  0  0  0  0  0  0  0  0
   14.0954  -35.4085  -11.3670 H   0  0  0  0  0  0  0  0  0  0  0  0
   13.3411  -34.3407  -12.3455 H   0  0  0  0  0  0  0  0  0  0  0  0
   14.7371  -35.0406  -12.8228 H   0  0  0  0  0  0  0  0  0  0  0  0
   16.9186  -43.6640  -18.4099 H   0  0  0  0  0  0  0  0  0  0  0  0
   15.6206  -44.6493  -18.3044 H   0  0  0  0  0  0  0  0  0  0  0  0
   16.2980  -45.9428  -15.5744 H   0  0  0  0  0  0  0  0  0  0  0  0
   17.6927  -45.1420  -15.2909 H   0  0  0  0  0  0  0  0  0  0  0  0
   19.1929  -42.4852  -13.3809 C   0  0  0  0  0  0  0  0  0  0  0  0
   19.6904  -40.5027  -13.8726 H   0  0  0  0  0  0  0  0  0  0  0  0
   19.6068  -41.4784  -15.1794 H   0  0  0  0  0  0  0  0  0  0  0  0
   20.5627  -43.1702  -13.4213 C   0  0  0  0  0  0  0  0  0  0  0  0
   19.0836  -42.1752  -11.8817 C   0  0  0  0  0  0  0  0  0  0  0  0
   20.4831  -41.7229  -11.4575 C   0  0  0  0  0  0  0  0  0  0  0  0
   21.4465  -42.3807  -12.4501 C   0  0  0  0  0  0  0  0  0  0  0  0
   18.4772  -43.1281  -13.6536 H   0  0  0  0  0  0  0  0  0  0  0  0
   20.9428  -43.1363  -14.3456 H   0  0  0  0  0  0  0  0  0  0  0  0
   20.4854  -44.1229  -13.1274 H   0  0  0  0  0  0  0  0  0  0  0  0
   18.8112  -42.9928  -11.3742 H   0  0  0  0  0  0  0  0  0  0  0  0
   18.4172  -41.4467  -11.7226 H   0  0  0  0  0  0  0  0  0  0  0  0
   20.6807  -42.0269  -10.5255 H   0  0  0  0  0  0  0  0  0  0  0  0
   20.5578  -40.7269  -11.5062 H   0  0  0  0  0  0  0  0  0  0  0  0
   21.9700  -41.6848  -12.9417 H   0  0  0  0  0  0  0  0  0  0  0  0
   22.0747  -42.9947  -11.9722 H   0  0  0  0  0  0  0  0  0  0  0  0
   17.7295  -40.1922  -15.3808 H   0  0  0  0  0  0  0  0  0  0  0  0
  1  2  2  0  0  0  0
  1  6  1  0  0  0  0
  1 27  1  0  0  0  0
  2  3  1  0  0  0  0
  3  4  2  0  0  0  0
  3 23  1  0  0  0  0
  4  5  1  0  0  0  0
  4  8  1  0  0  0  0
  5  6  2  0  0  0  0
  5 28  1  0  0  0  0
  6  7  1  0  0  0  0
  8  9  1  0  0  0  0
  8 29  1  0  0  0  0
  9 10  1  0  0  0  0
  9 30  1  0  0  0  0
  9 31  1  0  0  0  0
 10 11  2  0  0  0  0
 10 14  1  0  0  0  0
 11 12  1  0  0  0  0
 11 32  1  0  0  0  0
 12 13  2  0  0  0  0
 12 33  1  0  0  0  0
 13 14  1  0  0  0  0
 13 15  1  0  0  0  0
 15 16  1  0  0  0  0
 15 22  2  0  0  0  0
 16 17  1  0  0  0  0
 16 34  1  0  0  0  0
 17 18  1  0  0  0  0
 17 35  1  0  0  0  0
 17 61  1  0  0  0  0
 18 19  2  0  0  0  0
 18 20  1  0  0  0  0
 20 21  1  0  0  0  0
 20 36  1  0  0  0  0
 21 24  1  0  0  0  0
 21 25  1  0  0  0  0
 21 37  1  0  0  0  0
 23 38  1  0  0  0  0
 23 39  1  0  0  0  0
 23 40  1  0  0  0  0
 24 26  1  0  0  0  0
 24 41  1  0  0  0  0
 24 42  1  0  0  0  0
 25 26  1  0  0  0  0
 25 43  1  0  0  0  0
 25 44  1  0  0  0  0
 35 45  1  0  0  0  0
 35 46  1  0  0  0  0
 35 47  1  0  0  0  0
 45 48  1  0  0  0  0
 45 49  1  0  0  0  0
 45 52  1  0  0  0  0
 48 51  1  0  0  0  0
 48 53  1  0  0  0  0
 48 54  1  0  0  0  0
 49 50  1  0  0  0  0
 49 55  1  0  0  0  0
 49 56  1  0  0  0  0
 50 51  1  0  0  0  0
 50 57  1  0  0  0  0
 50 58  1  0  0  0  0
 51 59  1  0  0  0  0
 51 60  1  0  0  0  0
M  END
> <BIOSOLVEIT.HYDE_ESTIMATED_AFFINITY_LOWER_BOUNDARY [nM]>
3911846.690342

> <BIOSOLVEIT.HYDE_ESTIMATED_AFFINITY_UPPER_BOUNDARY [nM]>
388665097.353552

> <BIOSOLVEIT.HYDE_LIGAND_EFFICIENCY range: ++, +, 0, -, -->
--

> <BIOSOLVEIT.HYDE_LIGAND_LIPOPHILIC_EFFICIENCY range: ++, +, 0, -, -->
--

> <BIOSOLVEIT.INTER_CLASH range: red, yellow, green>
green

> <BIOSOLVEIT.INTRA_CLASH range: red, yellow, green>
green

> <BIOSOLVEIT.LOGP>
3.91072

> <BIOSOLVEIT.MOLECULAR WEIGHT>
477.025

> <BIOSOLVEIT.MOLECULE_CHECKSUM>
LTguMDQyNzE7MC4yNTEzMzU=

> <BIOSOLVEIT.TORSION_QUALITY range: red, yellow, green, not rotatable>
yellow

> <BIOSOLVEIT.TPSA>
92.35

$$$$
G9.sdf
b8Hydescor01032215413D 1   1.00000     0.00000     0
Hydescorer 1.1.2 b8048283
 62 64  0  0  0  0            999 V2000
   14.7021  -32.7882  -11.8904 C   0  0  0  0  0  0  0  0  0  0  0  0
   14.2369  -33.7765  -12.7475 C   0  0  0  0  0  0  0  0  0  0  0  0
   14.1308  -35.0506  -12.3691 N   0  0  0  0  0  0  0  0  0  0  0  0
   14.4786  -35.3851  -11.1232 C   0  0  0  0  0  0  0  0  0  0  0  0
   14.9495  -34.4578  -10.1990 C   0  0  0  0  0  0  0  0  0  0  0  0
   15.0674  -33.1352  -10.5920 C   0  0  0  0  0  0  0  0  0  0  0  0
   15.6571  -31.9314   -9.4924 Cl  0  0  0  0  0  0  0  0  0  0  0  0
   14.3533  -36.7072  -10.7456 N   0  0  0  0  0  0  0  0  0  0  0  0
   15.3796  -37.3258   -9.9075 C   0  0  0  0  0  0  0  0  0  0  0  0
   16.5834  -37.4180  -10.8196 C   0  0  0  0  0  0  0  0  0  0  0  0
   17.6804  -36.5992  -10.8340 C   0  0  0  0  0  0  0  0  0  0  0  0
   18.6324  -36.9721  -11.7900 C   0  0  0  0  0  0  0  0  0  0  0  0
   18.2704  -38.0890  -12.5151 C   0  0  0  0  0  0  0  0  0  0  0  0
   16.7217  -38.6760  -11.9928 S   0  0  0  0  0  0  0  0  0  0  0  0
   19.0040  -38.7619  -13.5754 C   0  0  0  0  0  0  0  0  0  0  0  0
   18.2874  -39.3210  -14.6015 N   0  0  0  0  0  0  0  0  0  0  0  0
   18.8182  -40.0569  -15.7908 C   0  0  2  0  0  0  0  0  0  0  0  0
   17.8609  -39.9451  -16.9985 C   0  0  0  0  0  0  0  0  0  0  0  0
   16.7418  -39.4558  -16.8715 O   0  0  0  0  0  0  0  0  0  0  0  0
   18.2616  -40.3949  -18.1909 N   0  0  0  0  0  0  0  0  0  0  0  0
   17.4627  -40.3512  -19.4117 C   0  0  0  0  0  0  0  0  0  0  0  0
   20.2271  -38.8610  -13.6037 O   0  0  0  0  0  0  0  0  0  0  0  0
   16.7824  -41.7051  -19.6423 C   0  0  0  0  0  0  0  0  0  0  0  0
   15.3568  -41.5494  -20.0177 N   0  3  0  0  0  0  0  0  0  0  0  0
   14.7739  -31.8404  -12.2011 H   0  0  0  0  0  0  0  0  0  0  0  0
   13.9728  -33.5246  -13.6785 H   0  0  0  0  0  0  0  0  0  0  0  0
   15.1971  -34.7399   -9.2721 H   0  0  0  0  0  0  0  0  0  0  0  0
   13.5621  -37.2407  -11.0445 H   0  0  0  0  0  0  0  0  0  0  0  0
   15.0920  -38.2343   -9.6045 H   0  0  0  0  0  0  0  0  0  0  0  0
   15.5796  -36.7563   -9.1103 H   0  0  0  0  0  0  0  0  0  0  0  0
   17.7904  -35.8147  -10.2238 H   0  0  0  0  0  0  0  0  0  0  0  0
   19.4900  -36.4781  -11.9333 H   0  0  0  0  0  0  0  0  0  0  0  0
   17.2933  -39.2258  -14.5489 H   0  0  0  0  0  0  0  0  0  0  0  0
   19.0900  -41.5366  -15.3808 C   0  0  0  0  0  0  0  0  0  0  0  0
   19.1776  -40.7915  -18.2516 H   0  0  0  0  0  0  0  0  0  0  0  0
   18.0565  -40.1424  -20.1887 H   0  0  0  0  0  0  0  0  0  0  0  0
   16.7646  -39.6404  -19.3252 H   0  0  0  0  0  0  0  0  0  0  0  0
   16.8385  -42.2428  -18.8010 H   0  0  0  0  0  0  0  0  0  0  0  0
   17.2598  -42.1859  -20.3777 H   0  0  0  0  0  0  0  0  0  0  0  0
   17.9957  -42.1356  -14.4643 C   0  0  0  0  0  0  0  0  0  0  0  0
   19.9641  -41.5752  -14.8965 H   0  0  0  0  0  0  0  0  0  0  0  0
   19.1445  -42.0902  -16.2118 H   0  0  0  0  0  0  0  0  0  0  0  0
   19.6908  -39.6416  -16.0479 H   0  0  0  0  0  0  0  0  0  0  0  0
   18.1333  -41.7735  -12.9734 C   0  0  0  0  0  0  0  0  0  0  0  0
   16.5602  -41.8507  -14.9476 C   0  0  0  0  0  0  0  0  0  0  0  0
   15.5411  -42.6358  -14.1070 C   0  0  0  0  0  0  0  0  0  0  0  0
   15.6902  -42.3082  -12.6137 C   0  0  0  0  0  0  0  0  0  0  0  0
   17.1243  -42.5653  -12.1295 C   0  0  0  0  0  0  0  0  0  0  0  0
   18.1092  -43.1278  -14.5159 H   0  0  0  0  0  0  0  0  0  0  0  0
   17.9638  -40.7950  -12.8559 H   0  0  0  0  0  0  0  0  0  0  0  0
   19.0601  -41.9905  -12.6667 H   0  0  0  0  0  0  0  0  0  0  0  0
   16.4757  -42.1238  -15.9059 H   0  0  0  0  0  0  0  0  0  0  0  0
   16.3726  -40.8722  -14.8620 H   0  0  0  0  0  0  0  0  0  0  0  0
   15.6901  -43.6152  -14.2434 H   0  0  0  0  0  0  0  0  0  0  0  0
   14.6171  -42.3947  -14.4040 H   0  0  0  0  0  0  0  0  0  0  0  0
   15.0611  -42.8820  -12.0894 H   0  0  0  0  0  0  0  0  0  0  0  0
   15.4641  -41.3452  -12.4669 H   0  0  0  0  0  0  0  0  0  0  0  0
   17.2033  -42.2831  -11.1734 H   0  0  0  0  0  0  0  0  0  0  0  0
   17.3266  -43.5415  -12.2067 H   0  0  0  0  0  0  0  0  0  0  0  0
   15.2861  -41.4009  -21.0040 H   0  0  0  0  0  0  0  0  0  0  0  0
   14.8541  -42.3772  -19.7684 H   0  0  0  0  0  0  0  0  0  0  0  0
   14.9684  -40.7651  -19.5338 H   0  0  0  0  0  0  0  0  0  0  0  0
  1  2  2  0  0  0  0
  1  6  1  0  0  0  0
  1 25  1  0  0  0  0
  2  3  1  0  0  0  0
  2 26  1  0  0  0  0
  3  4  2  0  0  0  0
  4  5  1  0  0  0  0
  4  8  1  0  0  0  0
  5  6  2  0  0  0  0
  5 27  1  0  0  0  0
  6  7  1  0  0  0  0
  8  9  1  0  0  0  0
  8 28  1  0  0  0  0
  9 10  1  0  0  0  0
  9 29  1  0  0  0  0
  9 30  1  0  0  0  0
 10 11  2  0  0  0  0
 10 14  1  0  0  0  0
 11 12  1  0  0  0  0
 11 31  1  0  0  0  0
 12 13  2  0  0  0  0
 12 32  1  0  0  0  0
 13 14  1  0  0  0  0
 13 15  1  0  0  0  0
 15 16  1  0  0  0  0
 15 22  2  0  0  0  0
 16 17  1  0  0  0  0
 16 33  1  0  0  0  0
 17 18  1  0  0  0  0
 17 34  1  0  0  0  0
 17 43  1  0  0  0  0
 18 19  2  0  0  0  0
 18 20  1  0  0  0  0
 20 21  1  0  0  0  0
 20 35  1  0  0  0  0
 21 23  1  0  0  0  0
 21 36  1  0  0  0  0
 21 37  1  0  0  0  0
 23 24  1  0  0  0  0
 23 38  1  0  0  0  0
 23 39  1  0  0  0  0
 24 60  1  0  0  0  0
 24 61  1  0  0  0  0
 34 40  1  0  0  0  0
 34 41  1  0  0  0  0
 34 42  1  0  0  0  0
 40 44  1  0  0  0  0
 40 45  1  0  0  0  0
 40 49  1  0  0  0  0
 44 48  1  0  0  0  0
 44 50  1  0  0  0  0
 44 51  1  0  0  0  0
 45 46  1  0  0  0  0
 45 52  1  0  0  0  0
 45 53  1  0  0  0  0
 46 47  1  0  0  0  0
 46 54  1  0  0  0  0
 46 55  1  0  0  0  0
 47 48  1  0  0  0  0
 47 56  1  0  0  0  0
 47 57  1  0  0  0  0
 48 58  1  0  0  0  0
 48 59  1  0  0  0  0
 24 62  1  0  0  0  0
M  CHG  1  24   1
M  END
> <BIOSOLVEIT.HYDE_ESTIMATED_AFFINITY_LOWER_BOUNDARY [nM]>
40626286.999859

> <BIOSOLVEIT.HYDE_ESTIMATED_AFFINITY_UPPER_BOUNDARY [nM]>
4036461815.054572

> <BIOSOLVEIT.HYDE_LIGAND_EFFICIENCY range: ++, +, 0, -, -->
--

> <BIOSOLVEIT.HYDE_LIGAND_LIPOPHILIC_EFFICIENCY range: ++, +, 0, -, -->
--

> <BIOSOLVEIT.INTER_CLASH range: red, yellow, green>
green

> <BIOSOLVEIT.INTRA_CLASH range: red, yellow, green>
green

> <BIOSOLVEIT.LOGP>
2.8355

> <BIOSOLVEIT.MOLECULAR WEIGHT>
465.038

> <BIOSOLVEIT.MOLECULE_CHECKSUM>
LTIuMjQwOTQ7MC4wNzIyODg0

> <BIOSOLVEIT.TORSION_QUALITY range: red, yellow, green, not rotatable>
red

> <BIOSOLVEIT.TPSA>
110.76

$$$$
G9.sdf
b8Hydescor01032215413D 1   1.00000     0.00000     0
Hydescorer 1.1.2 b8048283
 62 64  0  0  0  0            999 V2000
   14.8509  -32.6887  -11.0590 C   0  0  0  0  0  0  0  0  0  0  0  0
   15.6069  -32.6347   -9.8957 C   0  0  0  0  0  0  0  0  0  0  0  0
   16.3800  -33.6484   -9.5049 N   0  0  0  0  0  0  0  0  0  0  0  0
   16.4323  -34.7489  -10.2607 C   0  0  0  0  0  0  0  0  0  0  0  0
   15.7115  -34.8845  -11.4429 C   0  0  0  0  0  0  0  0  0  0  0  0
   14.9023  -33.8359  -11.8470 C   0  0  0  0  0  0  0  0  0  0  0  0
   13.9701  -33.9443  -13.3048 Cl  0  0  0  0  0  0  0  0  0  0  0  0
   17.2453  -35.7849   -9.8460 N   0  0  0  0  0  0  0  0  0  0  0  0
   18.6982  -35.6586   -9.9534 C   0  0  0  0  0  0  0  0  0  0  0  0
   19.0959  -36.8131  -10.8468 C   0  0  0  0  0  0  0  0  0  0  0  0
   20.3523  -37.3220  -11.0382 C   0  0  0  0  0  0  0  0  0  0  0  0
   20.3763  -38.4122  -11.9158 C   0  0  0  0  0  0  0  0  0  0  0  0
   19.1296  -38.7506  -12.4013 C   0  0  0  0  0  0  0  0  0  0  0  0
   17.9169  -37.6911  -11.7510 S   0  0  0  0  0  0  0  0  0  0  0  0
   18.7707  -39.8204  -13.3189 C   0  0  0  0  0  0  0  0  0  0  0  0
   17.5767  -40.4647  -13.1235 N   0  0  0  0  0  0  0  0  0  0  0  0
   17.0009  -41.5845  -13.9309 C   0  0  2  0  0  0  0  0  0  0  0  0
   17.1584  -41.3282  -15.4465 C   0  0  0  0  0  0  0  0  0  0  0  0
   17.1344  -40.1864  -15.8977 O   0  0  0  0  0  0  0  0  0  0  0  0
   17.3156  -42.3684  -16.2699 N   0  0  0  0  0  0  0  0  0  0  0  0
   17.4757  -42.2710  -17.7175 C   0  0  0  0  0  0  0  0  0  0  0  0
   19.4758  -40.1819  -14.2562 O   0  0  0  0  0  0  0  0  0  0  0  0
   16.8726  -43.5058  -18.3964 C   0  0  0  0  0  0  0  0  0  0  0  0
   15.3908  -43.4672  -18.3955 N   0  3  0  0  0  0  0  0  0  0  0  0
   14.2775  -31.9146  -11.3272 H   0  0  0  0  0  0  0  0  0  0  0  0
   15.5705  -31.8090   -9.3328 H   0  0  0  0  0  0  0  0  0  0  0  0
   15.7762  -35.7201  -11.9884 H   0  0  0  0  0  0  0  0  0  0  0  0
   16.8413  -36.6200   -9.4728 H   0  0  0  0  0  0  0  0  0  0  0  0
   19.1300  -35.7382   -9.0550 H   0  0  0  0  0  0  0  0  0  0  0  0
   18.9500  -34.7842  -10.3681 H   0  0  0  0  0  0  0  0  0  0  0  0
   21.1697  -36.9525  -10.5961 H   0  0  0  0  0  0  0  0  0  0  0  0
   21.2138  -38.8977  -12.1662 H   0  0  0  0  0  0  0  0  0  0  0  0
   17.0261  -40.1492  -12.3506 H   0  0  0  0  0  0  0  0  0  0  0  0
   15.5126  -41.7868  -13.5122 C   0  0  0  0  0  0  0  0  0  0  0  0
   17.3241  -43.2823  -15.8641 H   0  0  0  0  0  0  0  0  0  0  0  0
   18.4490  -42.2131  -17.9398 H   0  0  0  0  0  0  0  0  0  0  0  0
   17.0090  -41.4505  -18.0477 H   0  0  0  0  0  0  0  0  0  0  0  0
   17.1752  -44.3240  -17.9075 H   0  0  0  0  0  0  0  0  0  0  0  0
   17.1947  -43.5446  -19.3423 H   0  0  0  0  0  0  0  0  0  0  0  0
   14.7368  -40.4604  -13.3245 C   0  0  0  0  0  0  0  0  0  0  0  0
   15.4926  -42.2899  -12.6481 H   0  0  0  0  0  0  0  0  0  0  0  0
   15.0547  -42.3234  -14.2210 H   0  0  0  0  0  0  0  0  0  0  0  0
   17.5026  -42.4194  -13.7043 H   0  0  0  0  0  0  0  0  0  0  0  0
   14.4698  -39.6796  -14.6252 C   0  0  0  0  0  0  0  0  0  0  0  0
   13.4295  -40.6166  -12.5233 C   0  0  0  0  0  0  0  0  0  0  0  0
   12.8202  -39.2411  -12.2096 C   0  0  0  0  0  0  0  0  0  0  0  0
   12.5797  -38.4389  -13.4972 C   0  0  0  0  0  0  0  0  0  0  0  0
   13.8720  -38.3001  -14.3144 C   0  0  0  0  0  0  0  0  0  0  0  0
   15.3282  -39.8743  -12.7707 H   0  0  0  0  0  0  0  0  0  0  0  0
   13.8281  -40.1957  -15.1924 H   0  0  0  0  0  0  0  0  0  0  0  0
   15.3308  -39.5608  -15.1198 H   0  0  0  0  0  0  0  0  0  0  0  0
   13.6243  -41.0931  -11.6660 H   0  0  0  0  0  0  0  0  0  0  0  0
   12.7766  -41.1505  -13.0605 H   0  0  0  0  0  0  0  0  0  0  0  0
   13.4474  -38.7325  -11.6198 H   0  0  0  0  0  0  0  0  0  0  0  0
   11.9485  -39.3697  -11.7369 H   0  0  0  0  0  0  0  0  0  0  0  0
   12.2468  -37.5273  -13.2562 H   0  0  0  0  0  0  0  0  0  0  0  0
   11.8925  -38.9091  -14.0510 H   0  0  0  0  0  0  0  0  0  0  0  0
   13.6682  -37.8298  -15.1730 H   0  0  0  0  0  0  0  0  0  0  0  0
   14.5353  -37.7654  -13.7908 H   0  0  0  0  0  0  0  0  0  0  0  0
   15.0404  -44.1059  -19.0805 H   0  0  0  0  0  0  0  0  0  0  0  0
   15.0511  -43.7281  -17.4919 H   0  0  0  0  0  0  0  0  0  0  0  0
   15.0813  -42.5416  -18.6135 H   0  0  0  0  0  0  0  0  0  0  0  0
  1  2  2  0  0  0  0
  1  6  1  0  0  0  0
  1 25  1  0  0  0  0
  2  3  1  0  0  0  0
  2 26  1  0  0  0  0
  3  4  2  0  0  0  0
  4  5  1  0  0  0  0
  4  8  1  0  0  0  0
  5  6  2  0  0  0  0
  5 27  1  0  0  0  0
  6  7  1  0  0  0  0
  8  9  1  0  0  0  0
  8 28  1  0  0  0  0
  9 10  1  0  0  0  0
  9 29  1  0  0  0  0
  9 30  1  0  0  0  0
 10 11  2  0  0  0  0
 10 14  1  0  0  0  0
 11 12  1  0  0  0  0
 11 31  1  0  0  0  0
 12 13  2  0  0  0  0
 12 32  1  0  0  0  0
 13 14  1  0  0  0  0
 13 15  1  0  0  0  0
 15 16  1  0  0  0  0
 15 22  2  0  0  0  0
 16 17  1  0  0  0  0
 16 33  1  0  0  0  0
 17 18  1  0  0  0  0
 17 34  1  0  0  0  0
 17 43  1  0  0  0  0
 18 19  2  0  0  0  0
 18 20  1  0  0  0  0
 20 21  1  0  0  0  0
 20 35  1  0  0  0  0
 21 23  1  0  0  0  0
 21 36  1  0  0  0  0
 21 37  1  0  0  0  0
 23 24  1  0  0  0  0
 23 38  1  0  0  0  0
 23 39  1  0  0  0  0
 24 60  1  0  0  0  0
 24 61  1  0  0  0  0
 34 40  1  0  0  0  0
 34 41  1  0  0  0  0
 34 42  1  0  0  0  0
 40 44  1  0  0  0  0
 40 45  1  0  0  0  0
 40 49  1  0  0  0  0
 44 48  1  0  0  0  0
 44 50  1  0  0  0  0
 44 51  1  0  0  0  0
 45 46  1  0  0  0  0
 45 52  1  0  0  0  0
 45 53  1  0  0  0  0
 46 47  1  0  0  0  0
 46 54  1  0  0  0  0
 46 55  1  0  0  0  0
 47 48  1  0  0  0  0
 47 56  1  0  0  0  0
 47 57  1  0  0  0  0
 48 58  1  0  0  0  0
 48 59  1  0  0  0  0
 24 62  1  0  0  0  0
M  CHG  1  24   1
M  END
> <BIOSOLVEIT.HYDE_ESTIMATED_AFFINITY_LOWER_BOUNDARY [nM]>
6840180.481991

> <BIOSOLVEIT.HYDE_ESTIMATED_AFFINITY_UPPER_BOUNDARY [nM]>
679612373.233496

> <BIOSOLVEIT.HYDE_LIGAND_EFFICIENCY range: ++, +, 0, -, -->
--

> <BIOSOLVEIT.HYDE_LIGAND_LIPOPHILIC_EFFICIENCY range: ++, +, 0, -, -->
--

> <BIOSOLVEIT.INTER_CLASH range: red, yellow, green>
green

> <BIOSOLVEIT.INTRA_CLASH range: red, yellow, green>
yellow

> <BIOSOLVEIT.LOGP>
2.8355

> <BIOSOLVEIT.MOLECULAR WEIGHT>
465.038

> <BIOSOLVEIT.MOLECULE_CHECKSUM>
LTYuNjU3NDU7MC4yMTQ3NTc=

> <BIOSOLVEIT.TORSION_QUALITY range: red, yellow, green, not rotatable>
red

> <BIOSOLVEIT.TPSA>
110.76

$$$$
G9.sdf
b8Hydescor01032215413D 1   1.00000     0.00000     0
Hydescorer 1.1.2 b8048283
 62 64  0  0  0  0            999 V2000
   15.6327  -31.5918  -11.8932 C   0  0  0  0  0  0  0  0  0  0  0  0
   14.8923  -32.5405  -12.5857 C   0  0  0  0  0  0  0  0  0  0  0  0
   14.4398  -33.6507  -12.0023 N   0  0  0  0  0  0  0  0  0  0  0  0
   14.7035  -33.8534  -10.7082 C   0  0  0  0  0  0  0  0  0  0  0  0
   15.4334  -32.9526   -9.9392 C   0  0  0  0  0  0  0  0  0  0  0  0
   15.9105  -31.8021  -10.5448 C   0  0  0  0  0  0  0  0  0  0  0  0
   16.8355  -30.6437   -9.6459 Cl  0  0  0  0  0  0  0  0  0  0  0  0
   14.2192  -35.0037  -10.1179 N   0  0  0  0  0  0  0  0  0  0  0  0
   15.0673  -35.7649   -9.2016 C   0  0  0  0  0  0  0  0  0  0  0  0
   16.0293  -36.4893  -10.1175 C   0  0  0  0  0  0  0  0  0  0  0  0
   17.2963  -36.1043  -10.4649 C   0  0  0  0  0  0  0  0  0  0  0  0
   17.9335  -37.0143  -11.3165 C   0  0  0  0  0  0  0  0  0  0  0  0
   17.1555  -38.1117  -11.6244 C   0  0  0  0  0  0  0  0  0  0  0  0
   15.6107  -38.0001  -10.8389 S   0  0  0  0  0  0  0  0  0  0  0  0
   17.4840  -39.2523  -12.4649 C   0  0  0  0  0  0  0  0  0  0  0  0
   18.7060  -39.8492  -12.2939 N   0  0  0  0  0  0  0  0  0  0  0  0
   19.2595  -41.0248  -13.0351 C   0  0  2  0  0  0  0  0  0  0  0  0
   19.2045  -40.8064  -14.5638 C   0  0  0  0  0  0  0  0  0  0  0  0
   18.7883  -41.6875  -15.3110 O   0  0  0  0  0  0  0  0  0  0  0  0
   19.6234  -39.6435  -15.0709 N   0  0  0  0  0  0  0  0  0  0  0  0
   19.6262  -39.3042  -16.4904 C   0  0  0  0  0  0  0  0  0  0  0  0
   16.7319  -39.7098  -13.3205 O   0  0  0  0  0  0  0  0  0  0  0  0
   20.6048  -40.2113  -17.2447 C   0  0  0  0  0  0  0  0  0  0  0  0
   19.9197  -41.3763  -17.8535 N   0  3  0  0  0  0  0  0  0  0  0  0
   15.9619  -30.7688  -12.3562 H   0  0  0  0  0  0  0  0  0  0  0  0
   14.6919  -32.3861  -13.5532 H   0  0  0  0  0  0  0  0  0  0  0  0
   15.6095  -33.1317   -8.9712 H   0  0  0  0  0  0  0  0  0  0  0  0
   13.2902  -35.3158  -10.3166 H   0  0  0  0  0  0  0  0  0  0  0  0
   14.5239  -36.4146   -8.6699 H   0  0  0  0  0  0  0  0  0  0  0  0
   15.5584  -35.1542   -8.5803 H   0  0  0  0  0  0  0  0  0  0  0  0
   17.7230  -35.2591  -10.1431 H   0  0  0  0  0  0  0  0  0  0  0  0
   18.8607  -36.8824  -11.6669 H   0  0  0  0  0  0  0  0  0  0  0  0
   19.2967  -39.4524  -11.5914 H   0  0  0  0  0  0  0  0  0  0  0  0
   18.4883  -42.3041  -12.5878 C   0  0  0  0  0  0  0  0  0  0  0  0
   19.9602  -38.9539  -14.4298 H   0  0  0  0  0  0  0  0  0  0  0  0
   19.9054  -38.3505  -16.6024 H   0  0  0  0  0  0  0  0  0  0  0  0
   18.7063  -39.4280  -16.8623 H   0  0  0  0  0  0  0  0  0  0  0  0
   21.2983  -40.5420  -16.6046 H   0  0  0  0  0  0  0  0  0  0  0  0
   21.0455  -39.6805  -17.9687 H   0  0  0  0  0  0  0  0  0  0  0  0
   19.3403  -43.2725  -11.7318 C   0  0  0  0  0  0  0  0  0  0  0  0
   18.1819  -42.7910  -13.4058 H   0  0  0  0  0  0  0  0  0  0  0  0
   17.6935  -42.0225  -12.0501 H   0  0  0  0  0  0  0  0  0  0  0  0
   20.2181  -41.1333  -12.7721 H   0  0  0  0  0  0  0  0  0  0  0  0
   20.5333  -42.6169  -11.0108 C   0  0  0  0  0  0  0  0  0  0  0  0
   18.5131  -44.1072  -10.7345 C   0  0  0  0  0  0  0  0  0  0  0  0
   19.3914  -45.1765  -10.0659 C   0  0  0  0  0  0  0  0  0  0  0  0
   20.6033  -44.5380   -9.3710 C   0  0  0  0  0  0  0  0  0  0  0  0
   21.4191  -43.6837  -10.3518 C   0  0  0  0  0  0  0  0  0  0  0  0
   19.7365  -43.9284  -12.3743 H   0  0  0  0  0  0  0  0  0  0  0  0
   20.1903  -41.9943  -10.3075 H   0  0  0  0  0  0  0  0  0  0  0  0
   21.0765  -42.1030  -11.6748 H   0  0  0  0  0  0  0  0  0  0  0  0
   17.7641  -44.5551  -11.2227 H   0  0  0  0  0  0  0  0  0  0  0  0
   18.1384  -43.5028  -10.0314 H   0  0  0  0  0  0  0  0  0  0  0  0
   19.7140  -45.8171  -10.7627 H   0  0  0  0  0  0  0  0  0  0  0  0
   18.8470  -45.6689   -9.3868 H   0  0  0  0  0  0  0  0  0  0  0  0
   21.1878  -45.2619   -9.0045 H   0  0  0  0  0  0  0  0  0  0  0  0
   20.2819  -43.9580   -8.6225 H   0  0  0  0  0  0  0  0  0  0  0  0
   22.1613  -43.2331   -9.8555 H   0  0  0  0  0  0  0  0  0  0  0  0
   21.8032  -44.2751  -11.0609 H   0  0  0  0  0  0  0  0  0  0  0  0
   20.5984  -41.9844  -18.2653 H   0  0  0  0  0  0  0  0  0  0  0  0
   19.4132  -41.8714  -17.1475 H   0  0  0  0  0  0  0  0  0  0  0  0
   19.2853  -41.0589  -18.5583 H   0  0  0  0  0  0  0  0  0  0  0  0
  1  2  2  0  0  0  0
  1  6  1  0  0  0  0
  1 25  1  0  0  0  0
  2  3  1  0  0  0  0
  2 26  1  0  0  0  0
  3  4  2  0  0  0  0
  4  5  1  0  0  0  0
  4  8  1  0  0  0  0
  5  6  2  0  0  0  0
  5 27  1  0  0  0  0
  6  7  1  0  0  0  0
  8  9  1  0  0  0  0
  8 28  1  0  0  0  0
  9 10  1  0  0  0  0
  9 29  1  0  0  0  0
  9 30  1  0  0  0  0
 10 11  2  0  0  0  0
 10 14  1  0  0  0  0
 11 12  1  0  0  0  0
 11 31  1  0  0  0  0
 12 13  2  0  0  0  0
 12 32  1  0  0  0  0
 13 14  1  0  0  0  0
 13 15  1  0  0  0  0
 15 16  1  0  0  0  0
 15 22  2  0  0  0  0
 16 17  1  0  0  0  0
 16 33  1  0  0  0  0
 17 18  1  0  0  0  0
 17 34  1  0  0  0  0
 17 43  1  0  0  0  0
 18 19  2  0  0  0  0
 18 20  1  0  0  0  0
 20 21  1  0  0  0  0
 20 35  1  0  0  0  0
 21 23  1  0  0  0  0
 21 36  1  0  0  0  0
 21 37  1  0  0  0  0
 23 24  1  0  0  0  0
 23 38  1  0  0  0  0
 23 39  1  0  0  0  0
 24 60  1  0  0  0  0
 24 61  1  0  0  0  0
 34 40  1  0  0  0  0
 34 41  1  0  0  0  0
 34 42  1  0  0  0  0
 40 44  1  0  0  0  0
 40 45  1  0  0  0  0
 40 49  1  0  0  0  0
 44 48  1  0  0  0  0
 44 50  1  0  0  0  0
 44 51  1  0  0  0  0
 45 46  1  0  0  0  0
 45 52  1  0  0  0  0
 45 53  1  0  0  0  0
 46 47  1  0  0  0  0
 46 54  1  0  0  0  0
 46 55  1  0  0  0  0
 47 48  1  0  0  0  0
 47 56  1  0  0  0  0
 47 57  1  0  0  0  0
 48 58  1  0  0  0  0
 48 59  1  0  0  0  0
 24 62  1  0  0  0  0
M  CHG  1  24   1
M  END
> <BIOSOLVEIT.HYDE_ESTIMATED_AFFINITY_LOWER_BOUNDARY [nM]>
1024092.470636

> <BIOSOLVEIT.HYDE_ESTIMATED_AFFINITY_UPPER_BOUNDARY [nM]>
101749641.871542

> <BIOSOLVEIT.HYDE_LIGAND_EFFICIENCY range: ++, +, 0, -, -->
--

> <BIOSOLVEIT.HYDE_LIGAND_LIPOPHILIC_EFFICIENCY range: ++, +, 0, -, -->
--

> <BIOSOLVEIT.INTER_CLASH range: red, yellow, green>
green

> <BIOSOLVEIT.INTRA_CLASH range: red, yellow, green>
green

> <BIOSOLVEIT.LOGP>
2.8355

> <BIOSOLVEIT.MOLECULAR WEIGHT>
465.038

> <BIOSOLVEIT.MOLECULE_CHECKSUM>
LTExLjM2NTswLjM2NjYxMw==

> <BIOSOLVEIT.TORSION_QUALITY range: red, yellow, green, not rotatable>
red

> <BIOSOLVEIT.TPSA>
110.76

$$$$
G9.sdf
b8Hydescor01032215413D 1   1.00000     0.00000     0
Hydescorer 1.1.2 b8048283
 62 64  0  0  0  0            999 V2000
   21.1510  -37.7848  -11.7818 C   0  0  0  0  0  0  0  0  0  0  0  0
   19.8587  -37.3405  -12.0272 C   0  0  0  0  0  0  0  0  0  0  0  0
   19.1549  -36.6689  -11.1152 N   0  0  0  0  0  0  0  0  0  0  0  0
   19.7142  -36.4110   -9.9295 C   0  0  0  0  0  0  0  0  0  0  0  0
   21.0049  -36.8150   -9.6029 C   0  0  0  0  0  0  0  0  0  0  0  0
   21.7351  -37.5190  -10.5457 C   0  0  0  0  0  0  0  0  0  0  0  0
   23.3451  -38.0604  -10.1987 Cl  0  0  0  0  0  0  0  0  0  0  0  0
   18.9747  -35.7063   -9.0008 N   0  0  0  0  0  0  0  0  0  0  0  0
   17.8559  -36.3539   -8.3173 C   0  0  0  0  0  0  0  0  0  0  0  0
   16.6886  -36.1437   -9.2567 C   0  0  0  0  0  0  0  0  0  0  0  0
   16.0216  -34.9744   -9.5059 C   0  0  0  0  0  0  0  0  0  0  0  0
   14.9986  -35.1153  -10.4507 C   0  0  0  0  0  0  0  0  0  0  0  0
   14.8780  -36.4007  -10.9381 C   0  0  0  0  0  0  0  0  0  0  0  0
   16.0585  -37.4414  -10.2039 S   0  0  0  0  0  0  0  0  0  0  0  0
   13.9421  -36.9148  -11.9256 C   0  0  0  0  0  0  0  0  0  0  0  0
   13.6550  -38.2548  -11.9063 N   0  0  0  0  0  0  0  0  0  0  0  0
   12.7319  -39.0039  -12.8144 C   0  0  2  0  0  0  0  0  0  0  0  0
   11.3127  -39.1131  -12.2132 C   0  0  0  0  0  0  0  0  0  0  0  0
   10.9687  -40.1134  -11.5893 O   0  0  0  0  0  0  0  0  0  0  0  0
   10.4534  -38.1047  -12.3847 N   0  0  0  0  0  0  0  0  0  0  0  0
    9.0871  -38.0753  -11.8720 C   0  0  0  0  0  0  0  0  0  0  0  0
   13.3966  -36.2189  -12.7772 O   0  0  0  0  0  0  0  0  0  0  0  0
    8.0933  -37.9622  -13.0332 C   0  0  0  0  0  0  0  0  0  0  0  0
    8.1036  -39.1730  -13.8882 N   0  3  0  0  0  0  0  0  0  0  0  0
   21.6554  -38.2887  -12.4829 H   0  0  0  0  0  0  0  0  0  0  0  0
   19.4423  -37.5302  -12.9164 H   0  0  0  0  0  0  0  0  0  0  0  0
   21.3963  -36.6019   -8.7077 H   0  0  0  0  0  0  0  0  0  0  0  0
   19.2038  -34.7546   -8.7959 H   0  0  0  0  0  0  0  0  0  0  0  0
   17.6823  -35.9234   -7.4316 H   0  0  0  0  0  0  0  0  0  0  0  0
   18.0355  -37.3286   -8.1848 H   0  0  0  0  0  0  0  0  0  0  0  0
   16.2428  -34.1078   -9.0584 H   0  0  0  0  0  0  0  0  0  0  0  0
   14.4132  -34.3594  -10.7436 H   0  0  0  0  0  0  0  0  0  0  0  0
   14.1167  -38.7951  -11.2028 H   0  0  0  0  0  0  0  0  0  0  0  0
   13.3581  -40.3985  -13.1214 C   0  0  0  0  0  0  0  0  0  0  0  0
   10.7699  -37.3105  -12.9034 H   0  0  0  0  0  0  0  0  0  0  0  0
    8.9782  -37.2880  -11.2650 H   0  0  0  0  0  0  0  0  0  0  0  0
    8.9066  -38.9165  -11.3624 H   0  0  0  0  0  0  0  0  0  0  0  0
    8.3375  -37.1695  -13.5919 H   0  0  0  0  0  0  0  0  0  0  0  0
    7.1737  -37.8370  -12.6608 H   0  0  0  0  0  0  0  0  0  0  0  0
   14.8385  -40.3272  -13.5683 C   0  0  0  0  0  0  0  0  0  0  0  0
   12.8277  -40.8295  -13.8515 H   0  0  0  0  0  0  0  0  0  0  0  0
   13.3038  -40.9585  -12.2947 H   0  0  0  0  0  0  0  0  0  0  0  0
   12.6657  -38.4981  -13.6745 H   0  0  0  0  0  0  0  0  0  0  0  0
   15.5039  -41.6940  -13.8170 C   0  0  0  0  0  0  0  0  0  0  0  0
   15.0766  -39.3957  -14.7729 C   0  0  0  0  0  0  0  0  0  0  0  0
   16.5813  -39.2222  -15.0326 C   0  0  0  0  0  0  0  0  0  0  0  0
   17.2629  -40.5816  -15.2496 C   0  0  0  0  0  0  0  0  0  0  0  0
   17.0095  -41.5249  -14.0652 C   0  0  0  0  0  0  0  0  0  0  0  0
   15.3351  -39.9169  -12.8035 H   0  0  0  0  0  0  0  0  0  0  0  0
   15.0849  -42.1227  -14.6174 H   0  0  0  0  0  0  0  0  0  0  0  0
   15.3663  -42.2770  -13.0162 H   0  0  0  0  0  0  0  0  0  0  0  0
   14.6707  -38.5018  -14.5825 H   0  0  0  0  0  0  0  0  0  0  0  0
   14.6463  -39.7911  -15.5844 H   0  0  0  0  0  0  0  0  0  0  0  0
   16.9990  -38.7690  -14.2452 H   0  0  0  0  0  0  0  0  0  0  0  0
   16.7094  -38.6583  -15.8484 H   0  0  0  0  0  0  0  0  0  0  0  0
   18.2478  -40.4404  -15.3493 H   0  0  0  0  0  0  0  0  0  0  0  0
   16.9000  -40.9991  -16.0826 H   0  0  0  0  0  0  0  0  0  0  0  0
   17.4114  -42.4185  -14.2657 H   0  0  0  0  0  0  0  0  0  0  0  0
   17.4365  -41.1438  -13.2452 H   0  0  0  0  0  0  0  0  0  0  0  0
    7.4116  -39.0814  -14.6043 H   0  0  0  0  0  0  0  0  0  0  0  0
    9.0054  -39.2773  -14.3075 H   0  0  0  0  0  0  0  0  0  0  0  0
    7.9008  -39.9773  -13.3296 H   0  0  0  0  0  0  0  0  0  0  0  0
  1  2  2  0  0  0  0
  1  6  1  0  0  0  0
  1 25  1  0  0  0  0
  2  3  1  0  0  0  0
  2 26  1  0  0  0  0
  3  4  2  0  0  0  0
  4  5  1  0  0  0  0
  4  8  1  0  0  0  0
  5  6  2  0  0  0  0
  5 27  1  0  0  0  0
  6  7  1  0  0  0  0
  8  9  1  0  0  0  0
  8 28  1  0  0  0  0
  9 10  1  0  0  0  0
  9 29  1  0  0  0  0
  9 30  1  0  0  0  0
 10 11  2  0  0  0  0
 10 14  1  0  0  0  0
 11 12  1  0  0  0  0
 11 31  1  0  0  0  0
 12 13  2  0  0  0  0
 12 32  1  0  0  0  0
 13 14  1  0  0  0  0
 13 15  1  0  0  0  0
 15 16  1  0  0  0  0
 15 22  2  0  0  0  0
 16 17  1  0  0  0  0
 16 33  1  0  0  0  0
 17 18  1  0  0  0  0
 17 34  1  0  0  0  0
 17 43  1  0  0  0  0
 18 19  2  0  0  0  0
 18 20  1  0  0  0  0
 20 21  1  0  0  0  0
 20 35  1  0  0  0  0
 21 23  1  0  0  0  0
 21 36  1  0  0  0  0
 21 37  1  0  0  0  0
 23 24  1  0  0  0  0
 23 38  1  0  0  0  0
 23 39  1  0  0  0  0
 24 60  1  0  0  0  0
 24 61  1  0  0  0  0
 34 40  1  0  0  0  0
 34 41  1  0  0  0  0
 34 42  1  0  0  0  0
 40 44  1  0  0  0  0
 40 45  1  0  0  0  0
 40 49  1  0  0  0  0
 44 48  1  0  0  0  0
 44 50  1  0  0  0  0
 44 51  1  0  0  0  0
 45 46  1  0  0  0  0
 45 52  1  0  0  0  0
 45 53  1  0  0  0  0
 46 47  1  0  0  0  0
 46 54  1  0  0  0  0
 46 55  1  0  0  0  0
 47 48  1  0  0  0  0
 47 56  1  0  0  0  0
 47 57  1  0  0  0  0
 48 58  1  0  0  0  0
 48 59  1  0  0  0  0
 24 62  1  0  0  0  0
M  CHG  1  24   1
M  END
> <BIOSOLVEIT.HYDE_ESTIMATED_AFFINITY_LOWER_BOUNDARY [nM]>
8530057089.574273

> <BIOSOLVEIT.HYDE_ESTIMATED_AFFINITY_UPPER_BOUNDARY [nM]>
847511605538.098999

> <BIOSOLVEIT.HYDE_LIGAND_EFFICIENCY range: ++, +, 0, -, -->
--

> <BIOSOLVEIT.HYDE_LIGAND_LIPOPHILIC_EFFICIENCY range: ++, +, 0, -, -->
--

> <BIOSOLVEIT.INTER_CLASH range: red, yellow, green>
green

> <BIOSOLVEIT.INTRA_CLASH range: red, yellow, green>
green

> <BIOSOLVEIT.LOGP>
2.8355

> <BIOSOLVEIT.MOLECULAR WEIGHT>
465.038

> <BIOSOLVEIT.MOLECULE_CHECKSUM>
MTEuMDEzOTsw

> <BIOSOLVEIT.TORSION_QUALITY range: red, yellow, green, not rotatable>
red

> <BIOSOLVEIT.TPSA>
110.76

$$$$
G6.sdf
b8Hydescor01032215413D 1   1.00000     0.00000     0
Hydescorer 1.1.2 b8048283
 61 63  0  0  0  0            999 V2000
   18.4405  -44.1256  -20.3789 C   0  0  0  0  0  0  0  0  0  0  0  0
   18.0337  -43.9990  -19.0524 C   0  0  0  0  0  0  0  0  0  0  0  0
   17.3569  -42.8569  -18.6333 C   0  0  0  0  0  0  0  0  0  0  0  0
   17.0924  -41.8356  -19.5510 C   0  0  0  0  0  0  0  0  0  0  0  0
   17.4833  -41.9579  -20.8818 C   0  0  0  0  0  0  0  0  0  0  0  0
   18.1638  -43.1028  -21.2908 C   0  0  0  0  0  0  0  0  0  0  0  0
   18.6721  -43.2585  -22.9397 Cl  0  0  0  0  0  0  0  0  0  0  0  0
   16.4205  -40.6760  -19.1566 N   0  0  0  0  0  0  0  0  0  0  0  0
   16.0605  -40.5712  -17.7430 C   0  0  0  0  0  0  0  0  0  0  0  0
   17.0348  -39.5518  -17.1945 C   0  0  0  0  0  0  0  0  0  0  0  0
   17.5928  -38.4886  -17.8542 C   0  0  0  0  0  0  0  0  0  0  0  0
   18.4397  -37.7227  -17.0441 C   0  0  0  0  0  0  0  0  0  0  0  0
   18.5316  -38.1925  -15.7502 C   0  0  0  0  0  0  0  0  0  0  0  0
   17.5593  -39.6169  -15.5512 S   0  0  0  0  0  0  0  0  0  0  0  0
   19.2808  -37.6425  -14.6341 C   0  0  0  0  0  0  0  0  0  0  0  0
   18.6895  -37.5995  -13.4040 N   0  0  0  0  0  0  0  0  0  0  0  0
   19.3980  -37.0515  -12.2253 C   0  0  2  0  0  0  0  0  0  0  0  0
   20.4873  -38.0538  -11.7920 C   0  0  0  0  0  0  0  0  0  0  0  0
   18.3562  -36.8778  -11.0924 C   0  0  0  0  0  0  0  0  0  0  0  0
   21.6283  -37.7182  -11.4827 O   0  0  0  0  0  0  0  0  0  0  0  0
   20.1072  -39.3318  -11.6890 N   0  0  0  0  0  0  0  0  0  0  0  0
   20.9869  -40.4286  -11.2941 C   0  0  0  0  0  0  0  0  0  0  0  0
   20.2756  -41.7690  -11.4922 C   0  0  0  0  0  0  0  0  0  0  0  0
   19.8567  -41.8854  -12.8437 O   0  0  0  0  0  0  0  0  0  0  0  0
   19.1644  -43.0994  -13.0956 C   0  0  0  0  0  0  0  0  0  0  0  0
   17.9980  -35.3852  -10.9374 C   0  0  0  0  0  0  0  0  0  0  0  0
   17.0063  -35.0763   -9.8128 C   0  0  0  0  0  0  0  0  0  0  0  0
   16.4176  -33.7092  -10.1763 C   0  0  0  0  0  0  0  0  0  0  0  0
   16.6676  -33.5265  -11.6782 C   0  0  0  0  0  0  0  0  0  0  0  0
   17.2496  -34.8547  -12.1598 C   0  0  0  0  0  0  0  0  0  0  0  0
   20.4389  -37.2370  -14.7085 O   0  0  0  0  0  0  0  0  0  0  0  0
   18.9289  -44.9455  -20.6778 H   0  0  0  0  0  0  0  0  0  0  0  0
   18.2285  -44.7307  -18.3992 H   0  0  0  0  0  0  0  0  0  0  0  0
   17.0617  -42.7675  -17.6821 H   0  0  0  0  0  0  0  0  0  0  0  0
   17.2778  -41.2313  -21.5373 H   0  0  0  0  0  0  0  0  0  0  0  0
   16.1965  -39.9523  -19.8094 H   0  0  0  0  0  0  0  0  0  0  0  0
   16.1696  -41.4518  -17.2819 H   0  0  0  0  0  0  0  0  0  0  0  0
   15.1177  -40.2546  -17.6384 H   0  0  0  0  0  0  0  0  0  0  0  0
   17.4135  -38.2809  -18.8158 H   0  0  0  0  0  0  0  0  0  0  0  0
   18.9298  -36.9148  -17.3712 H   0  0  0  0  0  0  0  0  0  0  0  0
   17.7574  -37.9457  -13.2970 H   0  0  0  0  0  0  0  0  0  0  0  0
   19.8116  -36.1696  -12.4512 H   0  0  0  0  0  0  0  0  0  0  0  0
   18.7393  -37.2183  -10.2338 H   0  0  0  0  0  0  0  0  0  0  0  0
   17.5310  -37.3957  -11.3178 H   0  0  0  0  0  0  0  0  0  0  0  0
   19.1540  -39.5518  -11.8970 H   0  0  0  0  0  0  0  0  0  0  0  0
   21.2340  -40.3243  -10.3307 H   0  0  0  0  0  0  0  0  0  0  0  0
   21.8147  -40.4073  -11.8547 H   0  0  0  0  0  0  0  0  0  0  0  0
   19.4781  -41.8156  -10.8905 H   0  0  0  0  0  0  0  0  0  0  0  0
   20.9033  -42.5156  -11.2720 H   0  0  0  0  0  0  0  0  0  0  0  0
   18.8913  -43.1340  -14.0570 H   0  0  0  0  0  0  0  0  0  0  0  0
   19.7637  -43.8734  -12.8913 H   0  0  0  0  0  0  0  0  0  0  0  0
   18.3508  -43.1456  -12.5161 H   0  0  0  0  0  0  0  0  0  0  0  0
   18.8339  -34.8535  -10.8010 H   0  0  0  0  0  0  0  0  0  0  0  0
   17.4754  -35.0347   -8.9307 H   0  0  0  0  0  0  0  0  0  0  0  0
   16.2878  -35.7709   -9.7757 H   0  0  0  0  0  0  0  0  0  0  0  0
   16.8734  -32.9857   -9.6577 H   0  0  0  0  0  0  0  0  0  0  0  0
   15.4367  -33.6908   -9.9827 H   0  0  0  0  0  0  0  0  0  0  0  0
   17.3168  -32.7826  -11.8365 H   0  0  0  0  0  0  0  0  0  0  0  0
   15.8105  -33.3276  -12.1535 H   0  0  0  0  0  0  0  0  0  0  0  0
   16.5226  -35.4843  -12.4341 H   0  0  0  0  0  0  0  0  0  0  0  0
   17.8748  -34.7130  -12.9272 H   0  0  0  0  0  0  0  0  0  0  0  0
  1  2  2  0  0  0  0
  1  6  1  0  0  0  0
  1 32  1  0  0  0  0
  2  3  1  0  0  0  0
  2 33  1  0  0  0  0
  3  4  2  0  0  0  0
  3 34  1  0  0  0  0
  4  5  1  0  0  0  0
  4  8  1  0  0  0  0
  5  6  2  0  0  0  0
  5 35  1  0  0  0  0
  6  7  1  0  0  0  0
  8  9  1  0  0  0  0
  8 36  1  0  0  0  0
  9 10  1  0  0  0  0
  9 37  1  0  0  0  0
  9 38  1  0  0  0  0
 10 11  2  0  0  0  0
 10 14  1  0  0  0  0
 11 12  1  0  0  0  0
 11 39  1  0  0  0  0
 12 13  2  0  0  0  0
 12 40  1  0  0  0  0
 13 14  1  0  0  0  0
 13 15  1  0  0  0  0
 15 16  1  0  0  0  0
 15 31  2  0  0  0  0
 16 17  1  0  0  0  0
 16 41  1  0  0  0  0
 17 18  1  0  0  0  0
 17 19  1  0  0  0  0
 17 42  1  0  0  0  0
 18 20  2  0  0  0  0
 18 21  1  0  0  0  0
 19 26  1  0  0  0  0
 19 43  1  0  0  0  0
 19 44  1  0  0  0  0
 21 22  1  0  0  0  0
 21 45  1  0  0  0  0
 22 23  1  0  0  0  0
 22 46  1  0  0  0  0
 22 47  1  0  0  0  0
 23 24  1  0  0  0  0
 23 48  1  0  0  0  0
 23 49  1  0  0  0  0
 24 25  1  0  0  0  0
 25 50  1  0  0  0  0
 25 51  1  0  0  0  0
 25 52  1  0  0  0  0
 26 27  1  0  0  0  0
 26 30  1  0  0  0  0
 26 53  1  0  0  0  0
 27 28  1  0  0  0  0
 27 54  1  0  0  0  0
 27 55  1  0  0  0  0
 28 29  1  0  0  0  0
 28 56  1  0  0  0  0
 28 57  1  0  0  0  0
 29 30  1  0  0  0  0
 29 58  1  0  0  0  0
 29 59  1  0  0  0  0
 30 60  1  0  0  0  0
 30 61  1  0  0  0  0
M  END
> <BIOSOLVEIT.HYDE_ESTIMATED_AFFINITY_LOWER_BOUNDARY [nM]>
294538251.461890

> <BIOSOLVEIT.HYDE_ESTIMATED_AFFINITY_UPPER_BOUNDARY [nM]>
29264116730.701653

> <BIOSOLVEIT.HYDE_LIGAND_EFFICIENCY range: ++, +, 0, -, -->
--

> <BIOSOLVEIT.HYDE_LIGAND_LIPOPHILIC_EFFICIENCY range: ++, +, 0, -, -->
--

> <BIOSOLVEIT.INTER_CLASH range: red, yellow, green>
green

> <BIOSOLVEIT.INTRA_CLASH range: red, yellow, green>
green

> <BIOSOLVEIT.LOGP>
4.4549

> <BIOSOLVEIT.MOLECULAR WEIGHT>
464.026

> <BIOSOLVEIT.MOLECULE_CHECKSUM>
Mi42Njk4Njsw

> <BIOSOLVEIT.TORSION_QUALITY range: red, yellow, green, not rotatable>
red

> <BIOSOLVEIT.TPSA>
79.46

$$$$
G6.sdf
b8Hydescor01032215413D 1   1.00000     0.00000     0
Hydescorer 1.1.2 b8048283
 61 63  0  0  0  0            999 V2000
   14.9401  -33.2085  -10.8277 C   0  0  0  0  0  0  0  0  0  0  0  0
   15.7733  -33.3724   -9.7232 C   0  0  0  0  0  0  0  0  0  0  0  0
   16.8718  -34.2245   -9.7946 C   0  0  0  0  0  0  0  0  0  0  0  0
   17.1306  -34.9189  -10.9805 C   0  0  0  0  0  0  0  0  0  0  0  0
   16.3116  -34.7525  -12.0941 C   0  0  0  0  0  0  0  0  0  0  0  0
   15.2122  -33.9005  -12.0116 C   0  0  0  0  0  0  0  0  0  0  0  0
   14.1748  -33.6994  -13.3844 Cl  0  0  0  0  0  0  0  0  0  0  0  0
   18.2221  -35.7853  -11.0782 N   0  0  0  0  0  0  0  0  0  0  0  0
   18.6466  -36.1614  -12.4261 C   0  0  0  0  0  0  0  0  0  0  0  0
   19.1619  -37.5749  -12.2636 C   0  0  0  0  0  0  0  0  0  0  0  0
   20.3411  -37.9748  -11.6925 C   0  0  0  0  0  0  0  0  0  0  0  0
   20.5016  -39.3657  -11.6803 C   0  0  0  0  0  0  0  0  0  0  0  0
   19.4382  -40.0441  -12.2387 C   0  0  0  0  0  0  0  0  0  0  0  0
   18.2325  -38.9275  -12.7988 S   0  0  0  0  0  0  0  0  0  0  0  0
   19.2414  -41.4772  -12.3695 C   0  0  0  0  0  0  0  0  0  0  0  0
   18.0190  -42.0028  -12.0624 N   0  0  0  0  0  0  0  0  0  0  0  0
   17.7525  -43.4546  -12.1742 C   0  0  2  0  0  0  0  0  0  0  0  0
   16.8509  -43.6997  -13.4012 C   0  0  0  0  0  0  0  0  0  0  0  0
   17.0216  -43.8967  -10.8821 C   0  0  0  0  0  0  0  0  0  0  0  0
   16.1974  -42.8129  -13.9461 O   0  0  0  0  0  0  0  0  0  0  0  0
   16.8694  -44.9359  -13.9107 N   0  0  0  0  0  0  0  0  0  0  0  0
   16.0888  -45.3672  -15.0674 C   0  0  0  0  0  0  0  0  0  0  0  0
   16.8044  -44.9703  -16.3606 C   0  0  0  0  0  0  0  0  0  0  0  0
   15.8559  -44.4658  -17.2888 O   0  0  0  0  0  0  0  0  0  0  0  0
   15.6752  -43.0622  -17.1729 C   0  0  0  0  0  0  0  0  0  0  0  0
   15.5032  -43.9779  -11.1434 C   0  0  0  0  0  0  0  0  0  0  0  0
   14.6448  -43.1148  -10.2150 C   0  0  0  0  0  0  0  0  0  0  0  0
   13.2453  -43.7338  -10.2903 C   0  0  0  0  0  0  0  0  0  0  0  0
   13.4426  -45.1658  -10.8022 C   0  0  0  0  0  0  0  0  0  0  0  0
   14.9553  -45.3754  -10.8558 C   0  0  0  0  0  0  0  0  0  0  0  0
   20.0974  -42.2609  -12.7748 O   0  0  0  0  0  0  0  0  0  0  0  0
   14.1500  -32.5978  -10.7739 H   0  0  0  0  0  0  0  0  0  0  0  0
   15.5816  -32.8763   -8.8763 H   0  0  0  0  0  0  0  0  0  0  0  0
   17.4719  -34.3393   -9.0031 H   0  0  0  0  0  0  0  0  0  0  0  0
   16.5104  -35.2394  -12.9446 H   0  0  0  0  0  0  0  0  0  0  0  0
   18.6907  -36.1315  -10.2655 H   0  0  0  0  0  0  0  0  0  0  0  0
   19.3705  -35.5542  -12.7536 H   0  0  0  0  0  0  0  0  0  0  0  0
   17.8757  -36.1346  -13.0625 H   0  0  0  0  0  0  0  0  0  0  0  0
   21.0179  -37.3386  -11.3223 H   0  0  0  0  0  0  0  0  0  0  0  0
   21.3078  -39.8222  -11.3038 H   0  0  0  0  0  0  0  0  0  0  0  0
   17.2880  -41.3936  -11.7552 H   0  0  0  0  0  0  0  0  0  0  0  0
   18.6121  -43.9561  -12.2726 H   0  0  0  0  0  0  0  0  0  0  0  0
   17.1986  -43.2319  -10.1564 H   0  0  0  0  0  0  0  0  0  0  0  0
   17.3587  -44.7951  -10.6007 H   0  0  0  0  0  0  0  0  0  0  0  0
   17.4588  -45.6123  -13.4690 H   0  0  0  0  0  0  0  0  0  0  0  0
   15.1888  -44.9321  -15.0402 H   0  0  0  0  0  0  0  0  0  0  0  0
   15.9796  -46.3608  -15.0412 H   0  0  0  0  0  0  0  0  0  0  0  0
   17.2586  -45.7716  -16.7499 H   0  0  0  0  0  0  0  0  0  0  0  0
   17.4849  -44.2650  -16.1623 H   0  0  0  0  0  0  0  0  0  0  0  0
   15.0006  -42.7564  -17.8448 H   0  0  0  0  0  0  0  0  0  0  0  0
   15.3519  -42.8426  -16.2524 H   0  0  0  0  0  0  0  0  0  0  0  0
   16.5456  -42.5991  -17.3399 H   0  0  0  0  0  0  0  0  0  0  0  0
   15.3146  -43.7345  -12.0948 H   0  0  0  0  0  0  0  0  0  0  0  0
   14.6282  -42.1663  -10.5310 H   0  0  0  0  0  0  0  0  0  0  0  0
   14.9951  -43.1482   -9.2789 H   0  0  0  0  0  0  0  0  0  0  0  0
   12.6697  -43.2151  -10.9226 H   0  0  0  0  0  0  0  0  0  0  0  0
   12.8208  -43.7439   -9.3850 H   0  0  0  0  0  0  0  0  0  0  0  0
   13.0429  -45.2695  -11.7130 H   0  0  0  0  0  0  0  0  0  0  0  0
   13.0209  -45.8219  -10.1764 H   0  0  0  0  0  0  0  0  0  0  0  0
   15.2988  -45.7207   -9.9824 H   0  0  0  0  0  0  0  0  0  0  0  0
   15.2016  -46.0125  -11.5862 H   0  0  0  0  0  0  0  0  0  0  0  0
  1  2  2  0  0  0  0
  1  6  1  0  0  0  0
  1 32  1  0  0  0  0
  2  3  1  0  0  0  0
  2 33  1  0  0  0  0
  3  4  2  0  0  0  0
  3 34  1  0  0  0  0
  4  5  1  0  0  0  0
  4  8  1  0  0  0  0
  5  6  2  0  0  0  0
  5 35  1  0  0  0  0
  6  7  1  0  0  0  0
  8  9  1  0  0  0  0
  8 36  1  0  0  0  0
  9 10  1  0  0  0  0
  9 37  1  0  0  0  0
  9 38  1  0  0  0  0
 10 11  2  0  0  0  0
 10 14  1  0  0  0  0
 11 12  1  0  0  0  0
 11 39  1  0  0  0  0
 12 13  2  0  0  0  0
 12 40  1  0  0  0  0
 13 14  1  0  0  0  0
 13 15  1  0  0  0  0
 15 16  1  0  0  0  0
 15 31  2  0  0  0  0
 16 17  1  0  0  0  0
 16 41  1  0  0  0  0
 17 18  1  0  0  0  0
 17 19  1  0  0  0  0
 17 42  1  0  0  0  0
 18 20  2  0  0  0  0
 18 21  1  0  0  0  0
 19 26  1  0  0  0  0
 19 43  1  0  0  0  0
 19 44  1  0  0  0  0
 21 22  1  0  0  0  0
 21 45  1  0  0  0  0
 22 23  1  0  0  0  0
 22 46  1  0  0  0  0
 22 47  1  0  0  0  0
 23 24  1  0  0  0  0
 23 48  1  0  0  0  0
 23 49  1  0  0  0  0
 24 25  1  0  0  0  0
 25 50  1  0  0  0  0
 25 51  1  0  0  0  0
 25 52  1  0  0  0  0
 26 27  1  0  0  0  0
 26 30  1  0  0  0  0
 26 53  1  0  0  0  0
 27 28  1  0  0  0  0
 27 54  1  0  0  0  0
 27 55  1  0  0  0  0
 28 29  1  0  0  0  0
 28 56  1  0  0  0  0
 28 57  1  0  0  0  0
 29 30  1  0  0  0  0
 29 58  1  0  0  0  0
 29 59  1  0  0  0  0
 30 60  1  0  0  0  0
 30 61  1  0  0  0  0
M  END
> <BIOSOLVEIT.HYDE_ESTIMATED_AFFINITY_LOWER_BOUNDARY [nM]>
39604883.016214

> <BIOSOLVEIT.HYDE_ESTIMATED_AFFINITY_UPPER_BOUNDARY [nM]>
3934979290.261121

> <BIOSOLVEIT.HYDE_LIGAND_EFFICIENCY range: ++, +, 0, -, -->
--

> <BIOSOLVEIT.HYDE_LIGAND_LIPOPHILIC_EFFICIENCY range: ++, +, 0, -, -->
--

> <BIOSOLVEIT.INTER_CLASH range: red, yellow, green>
green

> <BIOSOLVEIT.INTRA_CLASH range: red, yellow, green>
green

> <BIOSOLVEIT.LOGP>
4.4549

> <BIOSOLVEIT.MOLECULAR WEIGHT>
464.026

> <BIOSOLVEIT.MOLECULE_CHECKSUM>
LTIuMzA0MDY7MC4wNzQzMjQ2

> <BIOSOLVEIT.TORSION_QUALITY range: red, yellow, green, not rotatable>
red

> <BIOSOLVEIT.TPSA>
79.46

$$$$
G6.sdf
b8Hydescor01032215413D 1   1.00000     0.00000     0
Hydescorer 1.1.2 b8048283
 61 63  0  0  0  0            999 V2000
   15.4278  -31.4431  -11.3220 C   0  0  0  0  0  0  0  0  0  0  0  0
   16.0112  -31.2636  -10.0696 C   0  0  0  0  0  0  0  0  0  0  0  0
   16.4738  -32.3609   -9.3486 C   0  0  0  0  0  0  0  0  0  0  0  0
   16.3445  -33.6448   -9.8871 C   0  0  0  0  0  0  0  0  0  0  0  0
   15.7746  -33.8340  -11.1433 C   0  0  0  0  0  0  0  0  0  0  0  0
   15.3109  -32.7299  -11.8556 C   0  0  0  0  0  0  0  0  0  0  0  0
   14.5827  -32.9540  -13.4115 Cl  0  0  0  0  0  0  0  0  0  0  0  0
   16.7942  -34.7644   -9.1827 N   0  0  0  0  0  0  0  0  0  0  0  0
   18.1939  -35.1439   -9.3719 C   0  0  0  0  0  0  0  0  0  0  0  0
   18.1253  -36.3307  -10.3080 C   0  0  0  0  0  0  0  0  0  0  0  0
   17.0051  -36.9845  -10.7489 C   0  0  0  0  0  0  0  0  0  0  0  0
   17.2925  -38.0325  -11.6317 C   0  0  0  0  0  0  0  0  0  0  0  0
   18.6411  -38.1851  -11.8794 C   0  0  0  0  0  0  0  0  0  0  0  0
   19.5587  -37.0137  -10.9851 S   0  0  0  0  0  0  0  0  0  0  0  0
   19.3027  -39.1344  -12.7572 C   0  0  0  0  0  0  0  0  0  0  0  0
   18.6261  -40.2575  -13.1390 N   0  0  0  0  0  0  0  0  0  0  0  0
   19.2426  -41.2645  -14.0317 C   0  0  2  0  0  0  0  0  0  0  0  0
   19.2848  -40.6963  -15.4649 C   0  0  0  0  0  0  0  0  0  0  0  0
   18.3544  -42.5328  -13.9899 C   0  0  0  0  0  0  0  0  0  0  0  0
   20.2883  -40.7276  -16.1737 O   0  0  0  0  0  0  0  0  0  0  0  0
   18.1306  -40.2240  -15.9476 N   0  0  0  0  0  0  0  0  0  0  0  0
   17.9636  -39.6467  -17.2787 C   0  0  0  0  0  0  0  0  0  0  0  0
   16.7302  -38.7412  -17.3068 C   0  0  0  0  0  0  0  0  0  0  0  0
   15.5863  -39.4904  -16.9249 O   0  0  0  0  0  0  0  0  0  0  0  0
   14.4081  -38.6994  -16.8812 C   0  0  0  0  0  0  0  0  0  0  0  0
   18.9047  -43.5208  -12.9405 C   0  0  0  0  0  0  0  0  0  0  0  0
   18.1140  -44.8251  -12.8096 C   0  0  0  0  0  0  0  0  0  0  0  0
   18.4873  -45.3706  -11.4275 C   0  0  0  0  0  0  0  0  0  0  0  0
   19.0255  -44.1753  -10.6318 C   0  0  0  0  0  0  0  0  0  0  0  0
   18.8000  -42.9557  -11.5243 C   0  0  0  0  0  0  0  0  0  0  0  0
   20.4328  -38.9833  -13.2167 O   0  0  0  0  0  0  0  0  0  0  0  0
   15.0938  -30.6540  -11.8376 H   0  0  0  0  0  0  0  0  0  0  0  0
   16.0979  -30.3436   -9.6874 H   0  0  0  0  0  0  0  0  0  0  0  0
   16.8959  -32.2318   -8.4513 H   0  0  0  0  0  0  0  0  0  0  0  0
   15.6988  -34.7529  -11.5304 H   0  0  0  0  0  0  0  0  0  0  0  0
   16.1882  -35.2814   -8.5783 H   0  0  0  0  0  0  0  0  0  0  0  0
   18.6137  -35.4009   -8.5015 H   0  0  0  0  0  0  0  0  0  0  0  0
   18.7130  -34.3951   -9.7841 H   0  0  0  0  0  0  0  0  0  0  0  0
   16.0772  -36.7385  -10.4689 H   0  0  0  0  0  0  0  0  0  0  0  0
   16.5895  -38.6132  -12.0423 H   0  0  0  0  0  0  0  0  0  0  0  0
   17.6936  -40.4028  -12.8082 H   0  0  0  0  0  0  0  0  0  0  0  0
   20.1676  -41.4812  -13.7197 H   0  0  0  0  0  0  0  0  0  0  0  0
   18.3560  -42.9691  -14.8896 H   0  0  0  0  0  0  0  0  0  0  0  0
   17.4194  -42.2756  -13.7457 H   0  0  0  0  0  0  0  0  0  0  0  0
   17.3257  -40.2694  -15.3558 H   0  0  0  0  0  0  0  0  0  0  0  0
   17.8494  -40.3821  -17.9465 H   0  0  0  0  0  0  0  0  0  0  0  0
   18.7742  -39.1089  -17.5103 H   0  0  0  0  0  0  0  0  0  0  0  0
   16.6007  -38.3825  -18.2312 H   0  0  0  0  0  0  0  0  0  0  0  0
   16.8595  -37.9816  -16.6695 H   0  0  0  0  0  0  0  0  0  0  0  0
   13.6334  -39.2699  -16.6084 H   0  0  0  0  0  0  0  0  0  0  0  0
   14.5272  -37.9602  -16.2184 H   0  0  0  0  0  0  0  0  0  0  0  0
   14.2336  -38.3109  -17.7859 H   0  0  0  0  0  0  0  0  0  0  0  0
   19.8607  -43.7292  -13.1470 H   0  0  0  0  0  0  0  0  0  0  0  0
   18.3779  -45.4707  -13.5263 H   0  0  0  0  0  0  0  0  0  0  0  0
   17.1313  -44.6486  -12.8652 H   0  0  0  0  0  0  0  0  0  0  0  0
   19.1901  -46.0770  -11.5111 H   0  0  0  0  0  0  0  0  0  0  0  0
   17.6815  -45.7538  -10.9761 H   0  0  0  0  0  0  0  0  0  0  0  0
   20.0001  -44.2930  -10.4406 H   0  0  0  0  0  0  0  0  0  0  0  0
   18.5267  -44.0753   -9.7709 H   0  0  0  0  0  0  0  0  0  0  0  0
   17.8962  -42.5588  -11.3644 H   0  0  0  0  0  0  0  0  0  0  0  0
   19.5019  -42.2617  -11.3642 H   0  0  0  0  0  0  0  0  0  0  0  0
  1  2  2  0  0  0  0
  1  6  1  0  0  0  0
  1 32  1  0  0  0  0
  2  3  1  0  0  0  0
  2 33  1  0  0  0  0
  3  4  2  0  0  0  0
  3 34  1  0  0  0  0
  4  5  1  0  0  0  0
  4  8  1  0  0  0  0
  5  6  2  0  0  0  0
  5 35  1  0  0  0  0
  6  7  1  0  0  0  0
  8  9  1  0  0  0  0
  8 36  1  0  0  0  0
  9 10  1  0  0  0  0
  9 37  1  0  0  0  0
  9 38  1  0  0  0  0
 10 11  2  0  0  0  0
 10 14  1  0  0  0  0
 11 12  1  0  0  0  0
 11 39  1  0  0  0  0
 12 13  2  0  0  0  0
 12 40  1  0  0  0  0
 13 14  1  0  0  0  0
 13 15  1  0  0  0  0
 15 16  1  0  0  0  0
 15 31  2  0  0  0  0
 16 17  1  0  0  0  0
 16 41  1  0  0  0  0
 17 18  1  0  0  0  0
 17 19  1  0  0  0  0
 17 42  1  0  0  0  0
 18 20  2  0  0  0  0
 18 21  1  0  0  0  0
 19 26  1  0  0  0  0
 19 43  1  0  0  0  0
 19 44  1  0  0  0  0
 21 22  1  0  0  0  0
 21 45  1  0  0  0  0
 22 23  1  0  0  0  0
 22 46  1  0  0  0  0
 22 47  1  0  0  0  0
 23 24  1  0  0  0  0
 23 48  1  0  0  0  0
 23 49  1  0  0  0  0
 24 25  1  0  0  0  0
 25 50  1  0  0  0  0
 25 51  1  0  0  0  0
 25 52  1  0  0  0  0
 26 27  1  0  0  0  0
 26 30  1  0  0  0  0
 26 53  1  0  0  0  0
 27 28  1  0  0  0  0
 27 54  1  0  0  0  0
 27 55  1  0  0  0  0
 28 29  1  0  0  0  0
 28 56  1  0  0  0  0
 28 57  1  0  0  0  0
 29 30  1  0  0  0  0
 29 58  1  0  0  0  0
 29 59  1  0  0  0  0
 30 60  1  0  0  0  0
 30 61  1  0  0  0  0
M  END
> <BIOSOLVEIT.HYDE_ESTIMATED_AFFINITY_LOWER_BOUNDARY [nM]>
61157426.455727

> <BIOSOLVEIT.HYDE_ESTIMATED_AFFINITY_UPPER_BOUNDARY [nM]>
6076351909.698409

> <BIOSOLVEIT.HYDE_LIGAND_EFFICIENCY range: ++, +, 0, -, -->
--

> <BIOSOLVEIT.HYDE_LIGAND_LIPOPHILIC_EFFICIENCY range: ++, +, 0, -, -->
--

> <BIOSOLVEIT.INTER_CLASH range: red, yellow, green>
green

> <BIOSOLVEIT.INTRA_CLASH range: red, yellow, green>
green

> <BIOSOLVEIT.LOGP>
4.4549

> <BIOSOLVEIT.MOLECULAR WEIGHT>
464.026

> <BIOSOLVEIT.MOLECULE_CHECKSUM>
LTEuMjI2OTY7MC4wMzk1Nzkz

> <BIOSOLVEIT.TORSION_QUALITY range: red, yellow, green, not rotatable>
red

> <BIOSOLVEIT.TPSA>
79.46

$$$$
G2.****
b8Hydescor01032215413D 1   1.00000     0.00000     0
Hydescorer 1.1.2 b8048283
 64 66  0  0  0  0            999 V2000
   14.7793  -32.9993  -12.9694 C   0  0  0  0  0  0  0  0  0  0  0  0
   14.8463  -34.2621  -13.5526 C   0  0  0  0  0  0  0  0  0  0  0  0
   15.9357  -35.0924  -13.3031 C   0  0  0  0  0  0  0  0  0  0  0  0
   16.9638  -34.6481  -12.4666 C   0  0  0  0  0  0  0  0  0  0  0  0
   16.9006  -33.3921  -11.8676 C   0  0  0  0  0  0  0  0  0  0  0  0
   15.8081  -32.5678  -12.1262 C   0  0  0  0  0  0  0  0  0  0  0  0
   15.7258  -30.9959  -11.4018 Cl  0  0  0  0  0  0  0  0  0  0  0  0
   18.0716  -35.4571  -12.2033 N   0  0  0  0  0  0  0  0  0  0  0  0
   18.7717  -36.0125  -13.3612 C   0  0  0  0  0  0  0  0  0  0  0  0
   19.2651  -37.3583  -12.8771 C   0  0  0  0  0  0  0  0  0  0  0  0
   20.2157  -37.6077  -11.9227 C   0  0  0  0  0  0  0  0  0  0  0  0
   20.4203  -38.9726  -11.6930 C   0  0  0  0  0  0  0  0  0  0  0  0
   19.6171  -39.7834  -12.4679 C   0  0  0  0  0  0  0  0  0  0  0  0
   18.6091  -38.8264  -13.5073 S   0  0  0  0  0  0  0  0  0  0  0  0
   19.5299  -41.2341  -12.4782 C   0  0  0  0  0  0  0  0  0  0  0  0
   18.3208  -41.8203  -12.2412 N   0  0  0  0  0  0  0  0  0  0  0  0
   20.4732  -41.9835  -12.7217 O   0  0  0  0  0  0  0  0  0  0  0  0
   18.1598  -43.2914  -12.2367 C   0  0  2  0  0  0  0  0  0  0  0  0
   17.4252  -43.7125  -13.5262 C   0  0  0  0  0  0  0  0  0  0  0  0
   17.3095  -43.6674  -10.9965 C   0  0  0  0  0  0  0  0  0  0  0  0
   15.8061  -43.7449  -11.3569 C   0  0  0  0  0  0  0  0  0  0  0  0
   15.1992  -44.9562  -10.6224 C   0  0  0  0  0  0  0  0  0  0  0  0
   13.6987  -45.1006  -10.9114 C   0  0  0  0  0  0  0  0  0  0  0  0
   12.9440  -43.8230  -10.5243 C   0  0  0  0  0  0  0  0  0  0  0  0
   13.5312  -42.6076  -11.2522 C   0  0  0  0  0  0  0  0  0  0  0  0
   15.0337  -42.4651  -10.9710 C   0  0  0  0  0  0  0  0  0  0  0  0
   16.7976  -42.9271  -14.2326 O   0  0  0  0  0  0  0  0  0  0  0  0
   17.5669  -44.9891  -13.8981 N   0  0  0  0  0  0  0  0  0  0  0  0
   16.9534  -45.5802  -15.0847 C   0  0  0  0  0  0  0  0  0  0  0  0
   15.5757  -46.1469  -14.7362 C   0  0  0  0  0  0  0  0  0  0  0  0
   15.7147  -47.1462  -13.7374 O   0  0  0  0  0  0  0  0  0  0  0  0
   14.4808  -47.7680  -13.4138 C   0  0  0  0  0  0  0  0  0  0  0  0
   13.9980  -32.4028  -13.1531 H   0  0  0  0  0  0  0  0  0  0  0  0
   14.1095  -34.5736  -14.1527 H   0  0  0  0  0  0  0  0  0  0  0  0
   15.9824  -36.0005  -13.7195 H   0  0  0  0  0  0  0  0  0  0  0  0
   17.6319  -33.0855  -11.2584 H   0  0  0  0  0  0  0  0  0  0  0  0
   18.3716  -35.6473  -11.2685 H   0  0  0  0  0  0  0  0  0  0  0  0
   19.5377  -35.4277  -13.6280 H   0  0  0  0  0  0  0  0  0  0  0  0
   18.1486  -36.1198  -14.1359 H   0  0  0  0  0  0  0  0  0  0  0  0
   20.7129  -36.8874  -11.4392 H   0  0  0  0  0  0  0  0  0  0  0  0
   21.0831  -39.3254  -11.0326 H   0  0  0  0  0  0  0  0  0  0  0  0
   17.5241  -41.2418  -12.0663 H   0  0  0  0  0  0  0  0  0  0  0  0
   19.0543  -43.7358  -12.1888 H   0  0  0  0  0  0  0  0  0  0  0  0
   17.4405  -42.9742  -10.2879 H   0  0  0  0  0  0  0  0  0  0  0  0
   17.6094  -44.5570  -10.6521 H   0  0  0  0  0  0  0  0  0  0  0  0
   15.7183  -43.8889  -12.3425 H   0  0  0  0  0  0  0  0  0  0  0  0
   15.3298  -44.8373   -9.6381 H   0  0  0  0  0  0  0  0  0  0  0  0
   15.6687  -45.7863  -10.9232 H   0  0  0  0  0  0  0  0  0  0  0  0
   13.3356  -45.8685  -10.3836 H   0  0  0  0  0  0  0  0  0  0  0  0
   13.5681  -45.2755  -11.8873 H   0  0  0  0  0  0  0  0  0  0  0  0
   13.0196  -43.6829   -9.5371 H   0  0  0  0  0  0  0  0  0  0  0  0
   11.9808  -43.9218  -10.7742 H   0  0  0  0  0  0  0  0  0  0  0  0
   13.0611  -41.7820  -10.9400 H   0  0  0  0  0  0  0  0  0  0  0  0
   13.3925  -42.7182  -12.2363 H   0  0  0  0  0  0  0  0  0  0  0  0
   15.3921  -41.6969  -11.5015 H   0  0  0  0  0  0  0  0  0  0  0  0
   15.1663  -42.2873   -9.9959 H   0  0  0  0  0  0  0  0  0  0  0  0
   18.1325  -45.5807  -13.3235 H   0  0  0  0  0  0  0  0  0  0  0  0
   17.5371  -46.3164  -15.4270 H   0  0  0  0  0  0  0  0  0  0  0  0
   16.8538  -44.8784  -15.7901 H   0  0  0  0  0  0  0  0  0  0  0  0
   15.1634  -46.5480  -15.5542 H   0  0  0  0  0  0  0  0  0  0  0  0
   14.9898  -45.4123  -14.3938 H   0  0  0  0  0  0  0  0  0  0  0  0
   14.6316  -48.4611  -12.7088 H   0  0  0  0  0  0  0  0  0  0  0  0
   13.8401  -47.0800  -13.0731 H   0  0  0  0  0  0  0  0  0  0  0  0
   14.1013  -48.2012  -14.2313 H   0  0  0  0  0  0  0  0  0  0  0  0
  1  2  2  0  0  0  0
  1  6  1  0  0  0  0
  1 33  1  0  0  0  0
  2  3  1  0  0  0  0
  2 34  1  0  0  0  0
  3  4  2  0  0  0  0
  3 35  1  0  0  0  0
  4  5  1  0  0  0  0
  4  8  1  0  0  0  0
  5  6  2  0  0  0  0
  5 36  1  0  0  0  0
  6  7  1  0  0  0  0
  8  9  1  0  0  0  0
  8 37  1  0  0  0  0
  9 10  1  0  0  0  0
  9 38  1  0  0  0  0
  9 39  1  0  0  0  0
 10 11  2  0  0  0  0
 10 14  1  0  0  0  0
 11 12  1  0  0  0  0
 11 40  1  0  0  0  0
 12 13  2  0  0  0  0
 12 41  1  0  0  0  0
 13 14  1  0  0  0  0
 13 15  1  0  0  0  0
 15 16  1  0  0  0  0
 15 17  2  0  0  0  0
 16 18  1  0  0  0  0
 16 42  1  0  0  0  0
 18 19  1  0  0  0  0
 18 20  1  0  0  0  0
 18 43  1  0  0  0  0
 19 27  2  0  0  0  0
 19 28  1  0  0  0  0
 20 21  1  0  0  0  0
 20 44  1  0  0  0  0
 20 45  1  0  0  0  0
 21 22  1  0  0  0  0
 21 26  1  0  0  0  0
 21 46  1  0  0  0  0
 22 23  1  0  0  0  0
 22 47  1  0  0  0  0
 22 48  1  0  0  0  0
 23 24  1  0  0  0  0
 23 49  1  0  0  0  0
 23 50  1  0  0  0  0
 24 25  1  0  0  0  0
 24 51  1  0  0  0  0
 24 52  1  0  0  0  0
 25 26  1  0  0  0  0
 25 53  1  0  0  0  0
 25 54  1  0  0  0  0
 26 55  1  0  0  0  0
 26 56  1  0  0  0  0
 28 29  1  0  0  0  0
 28 57  1  0  0  0  0
 29 30  1  0  0  0  0
 29 58  1  0  0  0  0
 29 59  1  0  0  0  0
 30 31  1  0  0  0  0
 30 60  1  0  0  0  0
 30 61  1  0  0  0  0
 31 32  1  0  0  0  0
 32 62  1  0  0  0  0
 32 63  1  0  0  0  0
 32 64  1  0  0  0  0
M  END
> <BIOSOLVEIT.HYDE_ESTIMATED_AFFINITY_LOWER_BOUNDARY [nM]>
285100.123391

> <BIOSOLVEIT.HYDE_ESTIMATED_AFFINITY_UPPER_BOUNDARY [nM]>
28326382.904211

> <BIOSOLVEIT.HYDE_LIGAND_EFFICIENCY range: ++, +, 0, -, -->
--

> <BIOSOLVEIT.HYDE_LIGAND_LIPOPHILIC_EFFICIENCY range: ++, +, 0, -, -->
--

> <BIOSOLVEIT.INTER_CLASH range: red, yellow, green>
green

> <BIOSOLVEIT.INTRA_CLASH range: red, yellow, green>
green

> <BIOSOLVEIT.LOGP>
4.845

> <BIOSOLVEIT.MOLECULAR WEIGHT>
478.053

> <BIOSOLVEIT.MOLECULE_CHECKSUM>
LTE0LjUzNDk7MC40NTQyMTY=

> <BIOSOLVEIT.TORSION_QUALITY range: red, yellow, green, not rotatable>
red

> <BIOSOLVEIT.TPSA>
79.46

$$$$
G3.sdf
b8Hydescor01032215413D 1   1.00000     0.00000     0
Hydescorer 1.1.2 b8048283
 66 68  0  0  0  0            999 V2000
   23.3720  -39.8223  -18.0676 C   0  0  0  0  0  0  0  0  0  0  0  0
   22.0975  -40.1103  -17.5892 C   0  0  0  0  0  0  0  0  0  0  0  0
   21.4790  -39.2525  -16.6845 C   0  0  0  0  0  0  0  0  0  0  0  0
   22.1429  -38.1024  -16.2513 C   0  0  0  0  0  0  0  0  0  0  0  0
   23.4173  -37.7996  -16.7368 C   0  0  0  0  0  0  0  0  0  0  0  0
   24.0277  -38.6652  -17.6404 C   0  0  0  0  0  0  0  0  0  0  0  0
   25.6120  -38.3040  -18.2428 Cl  0  0  0  0  0  0  0  0  0  0  0  0
   21.4774  -37.2743  -15.3387 N   0  0  0  0  0  0  0  0  0  0  0  0
   20.0121  -37.2426  -15.2685 C   0  0  0  0  0  0  0  0  0  0  0  0
   19.6660  -37.0916  -13.7978 C   0  0  0  0  0  0  0  0  0  0  0  0
   20.0969  -37.8742  -12.7630 C   0  0  0  0  0  0  0  0  0  0  0  0
   19.6077  -37.4562  -11.5148 C   0  0  0  0  0  0  0  0  0  0  0  0
   18.8037  -36.3550  -11.6021 C   0  0  0  0  0  0  0  0  0  0  0  0
   18.6204  -35.8308  -13.2363 S   0  0  0  0  0  0  0  0  0  0  0  0
   18.1037  -35.6158  -10.4979 C   0  0  0  0  0  0  0  0  0  0  0  0
   16.8619  -36.3684  -10.3895 N   0  3  0  0  0  0  0  0  0  0  0  0
   15.8986  -35.7609  -11.3506 C   0  0  2  0  0  0  0  0  0  0  0  0
   15.8331  -34.2238  -11.1444 C   0  0  0  0  0  0  0  0  0  0  0  0
   14.5363  -36.4634  -11.2236 C   0  0  0  0  0  0  0  0  0  0  0  0
   14.4344  -37.7835  -12.0150 C   0  0  0  0  0  0  0  0  0  0  0  0
   14.9797  -38.9841  -11.2143 C   0  0  0  0  0  0  0  0  0  0  0  0
   14.8064  -40.2941  -11.9968 C   0  0  0  0  0  0  0  0  0  0  0  0
   13.3389  -40.5227  -12.3795 C   0  0  0  0  0  0  0  0  0  0  0  0
   12.7947  -39.3329  -13.1795 C   0  0  0  0  0  0  0  0  0  0  0  0
   12.9612  -38.0239  -12.3949 C   0  0  0  0  0  0  0  0  0  0  0  0
   16.4494  -33.4977  -11.9140 O   0  0  0  0  0  0  0  0  0  0  0  0
   15.3172  -33.7711   -9.9973 N   0  0  0  0  0  0  0  0  0  0  0  0
   15.2252  -32.3385   -9.7372 C   0  0  0  0  0  0  0  0  0  0  0  0
   16.6161  -31.8295   -9.2979 C   0  0  0  0  0  0  0  0  0  0  0  0
   16.7959  -30.4181   -9.5262 O   0  0  0  0  0  0  0  0  0  0  0  0
   15.9951  -29.9319  -10.6002 C   0  0  0  0  0  0  0  0  0  0  0  0
   23.8169  -40.4414  -18.7148 H   0  0  0  0  0  0  0  0  0  0  0  0
   21.6245  -40.9362  -17.8964 H   0  0  0  0  0  0  0  0  0  0  0  0
   20.5614  -39.4590  -16.3453 H   0  0  0  0  0  0  0  0  0  0  0  0
   23.8868  -36.9687  -16.4380 H   0  0  0  0  0  0  0  0  0  0  0  0
   22.0108  -36.6938  -14.7234 H   0  0  0  0  0  0  0  0  0  0  0  0
   19.6286  -38.0922  -15.6303 H   0  0  0  0  0  0  0  0  0  0  0  0
   19.6561  -36.4675  -15.7904 H   0  0  0  0  0  0  0  0  0  0  0  0
   20.6990  -38.6637  -12.8826 H   0  0  0  0  0  0  0  0  0  0  0  0
   19.8247  -37.9157  -10.6535 H   0  0  0  0  0  0  0  0  0  0  0  0
   17.9328  -34.6625  -10.7471 H   0  0  0  0  0  0  0  0  0  0  0  0
   18.6270  -35.6492   -9.6465 H   0  0  0  0  0  0  0  0  0  0  0  0
   16.5030  -36.3064   -9.4582 H   0  0  0  0  0  0  0  0  0  0  0  0
   16.2429  -35.9296  -12.2742 H   0  0  0  0  0  0  0  0  0  0  0  0
   13.8291  -35.8406  -11.5585 H   0  0  0  0  0  0  0  0  0  0  0  0
   14.3744  -36.6628  -10.2572 H   0  0  0  0  0  0  0  0  0  0  0  0
   14.9688  -37.6926  -12.8554 H   0  0  0  0  0  0  0  0  0  0  0  0
   14.4831  -39.0523  -10.3490 H   0  0  0  0  0  0  0  0  0  0  0  0
   15.9520  -38.8396  -11.0303 H   0  0  0  0  0  0  0  0  0  0  0  0
   15.1180  -41.0564  -11.4295 H   0  0  0  0  0  0  0  0  0  0  0  0
   15.3578  -40.2515  -12.8300 H   0  0  0  0  0  0  0  0  0  0  0  0
   12.7962  -40.6341  -11.5470 H   0  0  0  0  0  0  0  0  0  0  0  0
   13.2700  -41.3510  -12.9355 H   0  0  0  0  0  0  0  0  0  0  0  0
   11.8237  -39.4810  -13.3671 H   0  0  0  0  0  0  0  0  0  0  0  0
   13.2941  -39.2629  -14.0430 H   0  0  0  0  0  0  0  0  0  0  0  0
   12.6419  -37.2627  -12.9593 H   0  0  0  0  0  0  0  0  0  0  0  0
   12.4132  -38.0725  -11.5599 H   0  0  0  0  0  0  0  0  0  0  0  0
   14.9911  -34.4208   -9.3107 H   0  0  0  0  0  0  0  0  0  0  0  0
   14.5592  -32.1697   -9.0106 H   0  0  0  0  0  0  0  0  0  0  0  0
   14.9390  -31.8625  -10.5687 H   0  0  0  0  0  0  0  0  0  0  0  0
   17.3147  -32.3272   -9.8118 H   0  0  0  0  0  0  0  0  0  0  0  0
   16.7282  -32.0113   -8.3210 H   0  0  0  0  0  0  0  0  0  0  0  0
   16.1551  -28.9519  -10.7183 H   0  0  0  0  0  0  0  0  0  0  0  0
   16.2389  -30.4132  -11.4423 H   0  0  0  0  0  0  0  0  0  0  0  0
   15.0294  -30.0896  -10.3939 H   0  0  0  0  0  0  0  0  0  0  0  0
   17.0204  -37.3280  -10.6225 H   0  0  0  0  0  0  0  0  0  0  0  0
  1  2  2  0  0  0  0
  1  6  1  0  0  0  0
  1 32  1  0  0  0  0
  2  3  1  0  0  0  0
  2 33  1  0  0  0  0
  3  4  2  0  0  0  0
  3 34  1  0  0  0  0
  4  5  1  0  0  0  0
  4  8  1  0  0  0  0
  5  6  2  0  0  0  0
  5 35  1  0  0  0  0
  6  7  1  0  0  0  0
  8  9  1  0  0  0  0
  8 36  1  0  0  0  0
  9 10  1  0  0  0  0
  9 37  1  0  0  0  0
  9 38  1  0  0  0  0
 10 11  2  0  0  0  0
 10 14  1  0  0  0  0
 11 12  1  0  0  0  0
 11 39  1  0  0  0  0
 12 13  2  0  0  0  0
 12 40  1  0  0  0  0
 13 14  1  0  0  0  0
 13 15  1  0  0  0  0
 15 16  1  0  0  0  0
 15 41  1  0  0  0  0
 15 42  1  0  0  0  0
 16 17  1  0  0  0  0
 16 43  1  0  0  0  0
 16 66  1  0  0  0  0
 17 18  1  0  0  0  0
 17 19  1  0  0  0  0
 17 44  1  0  0  0  0
 18 26  2  0  0  0  0
 18 27  1  0  0  0  0
 19 20  1  0  0  0  0
 19 45  1  0  0  0  0
 19 46  1  0  0  0  0
 20 21  1  0  0  0  0
 20 25  1  0  0  0  0
 20 47  1  0  0  0  0
 21 22  1  0  0  0  0
 21 48  1  0  0  0  0
 21 49  1  0  0  0  0
 22 23  1  0  0  0  0
 22 50  1  0  0  0  0
 22 51  1  0  0  0  0
 23 24  1  0  0  0  0
 23 52  1  0  0  0  0
 23 53  1  0  0  0  0
 24 25  1  0  0  0  0
 24 54  1  0  0  0  0
 24 55  1  0  0  0  0
 25 56  1  0  0  0  0
 25 57  1  0  0  0  0
 27 28  1  0  0  0  0
 27 58  1  0  0  0  0
 28 29  1  0  0  0  0
 28 59  1  0  0  0  0
 28 60  1  0  0  0  0
 29 30  1  0  0  0  0
 29 61  1  0  0  0  0
 29 62  1  0  0  0  0
 30 31  1  0  0  0  0
 31 63  1  0  0  0  0
 31 64  1  0  0  0  0
 31 65  1  0  0  0  0
M  CHG  1  16   1
M  END
> <BIOSOLVEIT.HYDE_ESTIMATED_AFFINITY_LOWER_BOUNDARY [nM]>
481596.702256

> <BIOSOLVEIT.HYDE_ESTIMATED_AFFINITY_UPPER_BOUNDARY [nM]>
47849479.794187

> <BIOSOLVEIT.HYDE_LIGAND_EFFICIENCY range: ++, +, 0, -, -->
--

> <BIOSOLVEIT.HYDE_LIGAND_LIPOPHILIC_EFFICIENCY range: ++, +, 0, -, -->
--

> <BIOSOLVEIT.INTER_CLASH range: red, yellow, green>
green

> <BIOSOLVEIT.INTRA_CLASH range: red, yellow, green>
green

> <BIOSOLVEIT.LOGP>
4.1786

> <BIOSOLVEIT.MOLECULAR WEIGHT>
465.078

> <BIOSOLVEIT.MOLECULE_CHECKSUM>
LTEzLjIzNTM7MC40MjY5NDQ=

> <BIOSOLVEIT.TORSION_QUALITY range: red, yellow, green, not rotatable>
red

> <BIOSOLVEIT.TPSA>
66.97

$$$$
G3.sdf
b8Hydescor01032215413D 1   1.00000     0.00000     0
Hydescorer 1.1.2 b8048283
 66 68  0  0  0  0            999 V2000
   24.7649  -38.7916  -12.9059 C   0  0  0  0  0  0  0  0  0  0  0  0
   24.5231  -38.2473  -11.6483 C   0  0  0  0  0  0  0  0  0  0  0  0
   23.2370  -37.8531  -11.2917 C   0  0  0  0  0  0  0  0  0  0  0  0
   22.1874  -37.9987  -12.2017 C   0  0  0  0  0  0  0  0  0  0  0  0
   22.4196  -38.5561  -13.4615 C   0  0  0  0  0  0  0  0  0  0  0  0
   23.7102  -38.9459  -13.8088 C   0  0  0  0  0  0  0  0  0  0  0  0
   24.0115  -39.6308  -15.3721 Cl  0  0  0  0  0  0  0  0  0  0  0  0
   20.9132  -37.5840  -11.7942 N   0  0  0  0  0  0  0  0  0  0  0  0
   19.8365  -37.3677  -12.7671 C   0  0  0  0  0  0  0  0  0  0  0  0
   18.5513  -37.2975  -11.9615 C   0  0  0  0  0  0  0  0  0  0  0  0
   17.5701  -38.2467  -11.8866 C   0  0  0  0  0  0  0  0  0  0  0  0
   16.5146  -37.8824  -11.0348 C   0  0  0  0  0  0  0  0  0  0  0  0
   16.6944  -36.6549  -10.4628 C   0  0  0  0  0  0  0  0  0  0  0  0
   18.1644  -35.9187  -10.9882 S   0  0  0  0  0  0  0  0  0  0  0  0
   15.7980  -35.9288   -9.5010 C   0  0  0  0  0  0  0  0  0  0  0  0
   14.5281  -35.9578  -10.2126 N   0  3  0  0  0  0  0  0  0  0  0  0
   14.7762  -35.3954  -11.5702 C   0  0  2  0  0  0  0  0  0  0  0  0
   15.1890  -33.9028  -11.4648 C   0  0  0  0  0  0  0  0  0  0  0  0
   13.5444  -35.6381  -12.4584 C   0  0  0  0  0  0  0  0  0  0  0  0
   13.5273  -37.0194  -13.1446 C   0  0  0  0  0  0  0  0  0  0  0  0
   12.2418  -37.2433  -13.9673 C   0  0  0  0  0  0  0  0  0  0  0  0
   12.2789  -38.5965  -14.6926 C   0  0  0  0  0  0  0  0  0  0  0  0
   13.5192  -38.7132  -15.5873 C   0  0  0  0  0  0  0  0  0  0  0  0
   14.7995  -38.4955  -14.7718 C   0  0  0  0  0  0  0  0  0  0  0  0
   14.7660  -37.1400  -14.0521 C   0  0  0  0  0  0  0  0  0  0  0  0
   16.3585  -33.5978  -11.6617 O   0  0  0  0  0  0  0  0  0  0  0  0
   14.3127  -33.0514  -10.9221 N   0  0  0  0  0  0  0  0  0  0  0  0
   14.6352  -31.6347  -10.7920 C   0  0  0  0  0  0  0  0  0  0  0  0
   15.6216  -31.4622   -9.6155 C   0  0  0  0  0  0  0  0  0  0  0  0
   16.0487  -30.0979   -9.4356 O   0  0  0  0  0  0  0  0  0  0  0  0
   17.2766  -29.8171  -10.1026 C   0  0  0  0  0  0  0  0  0  0  0  0
   25.6901  -39.0713  -13.1623 H   0  0  0  0  0  0  0  0  0  0  0  0
   25.2758  -38.1391  -10.9988 H   0  0  0  0  0  0  0  0  0  0  0  0
   23.0646  -37.4663  -10.3857 H   0  0  0  0  0  0  0  0  0  0  0  0
   21.6657  -38.6740  -14.1079 H   0  0  0  0  0  0  0  0  0  0  0  0
   20.7340  -37.4326  -10.8221 H   0  0  0  0  0  0  0  0  0  0  0  0
   19.7980  -38.1266  -13.4170 H   0  0  0  0  0  0  0  0  0  0  0  0
   19.9829  -36.5115  -13.2626 H   0  0  0  0  0  0  0  0  0  0  0  0
   17.6009  -39.1120  -12.3870 H   0  0  0  0  0  0  0  0  0  0  0  0
   15.7163  -38.4601  -10.8651 H   0  0  0  0  0  0  0  0  0  0  0  0
   16.1097  -34.9912   -9.3473 H   0  0  0  0  0  0  0  0  0  0  0  0
   15.7373  -36.4077   -8.6251 H   0  0  0  0  0  0  0  0  0  0  0  0
   13.8510  -35.4027   -9.7295 H   0  0  0  0  0  0  0  0  0  0  0  0
   15.5436  -35.8957  -11.9711 H   0  0  0  0  0  0  0  0  0  0  0  0
   13.5252  -34.9342  -13.1684 H   0  0  0  0  0  0  0  0  0  0  0  0
   12.7260  -35.5598  -11.8891 H   0  0  0  0  0  0  0  0  0  0  0  0
   13.5802  -37.7258  -12.4388 H   0  0  0  0  0  0  0  0  0  0  0  0
   12.1555  -36.5122  -14.6441 H   0  0  0  0  0  0  0  0  0  0  0  0
   11.4530  -37.2235  -13.3529 H   0  0  0  0  0  0  0  0  0  0  0  0
   11.4592  -38.6858  -15.2583 H   0  0  0  0  0  0  0  0  0  0  0  0
   12.2967  -39.3301  -14.0134 H   0  0  0  0  0  0  0  0  0  0  0  0
   13.4689  -38.0233  -16.3095 H   0  0  0  0  0  0  0  0  0  0  0  0
   13.5428  -39.6246  -15.9980 H   0  0  0  0  0  0  0  0  0  0  0  0
   15.5877  -38.5204  -15.3868 H   0  0  0  0  0  0  0  0  0  0  0  0
   14.8833  -39.2248  -14.0928 H   0  0  0  0  0  0  0  0  0  0  0  0
   15.5899  -37.0475  -13.4929 H   0  0  0  0  0  0  0  0  0  0  0  0
   14.7425  -36.4093  -14.7344 H   0  0  0  0  0  0  0  0  0  0  0  0
   13.4274  -33.3891  -10.6023 H   0  0  0  0  0  0  0  0  0  0  0  0
   13.8007  -31.1141  -10.6116 H   0  0  0  0  0  0  0  0  0  0  0  0
   15.0571  -31.3058  -11.6369 H   0  0  0  0  0  0  0  0  0  0  0  0
   16.4274  -32.0283   -9.7894 H   0  0  0  0  0  0  0  0  0  0  0  0
   15.1733  -31.7693   -8.7759 H   0  0  0  0  0  0  0  0  0  0  0  0
   17.5290  -28.8619   -9.9479 H   0  0  0  0  0  0  0  0  0  0  0  0
   17.9946  -30.4138   -9.7445 H   0  0  0  0  0  0  0  0  0  0  0  0
   17.1675  -29.9784  -11.0835 H   0  0  0  0  0  0  0  0  0  0  0  0
   14.1969  -36.8985  -10.2859 H   0  0  0  0  0  0  0  0  0  0  0  0
  1  2  2  0  0  0  0
  1  6  1  0  0  0  0
  1 32  1  0  0  0  0
  2  3  1  0  0  0  0
  2 33  1  0  0  0  0
  3  4  2  0  0  0  0
  3 34  1  0  0  0  0
  4  5  1  0  0  0  0
  4  8  1  0  0  0  0
  5  6  2  0  0  0  0
  5 35  1  0  0  0  0
  6  7  1  0  0  0  0
  8  9  1  0  0  0  0
  8 36  1  0  0  0  0
  9 10  1  0  0  0  0
  9 37  1  0  0  0  0
  9 38  1  0  0  0  0
 10 11  2  0  0  0  0
 10 14  1  0  0  0  0
 11 12  1  0  0  0  0
 11 39  1  0  0  0  0
 12 13  2  0  0  0  0
 12 40  1  0  0  0  0
 13 14  1  0  0  0  0
 13 15  1  0  0  0  0
 15 16  1  0  0  0  0
 15 41  1  0  0  0  0
 15 42  1  0  0  0  0
 16 17  1  0  0  0  0
 16 43  1  0  0  0  0
 16 66  1  0  0  0  0
 17 18  1  0  0  0  0
 17 19  1  0  0  0  0
 17 44  1  0  0  0  0
 18 26  2  0  0  0  0
 18 27  1  0  0  0  0
 19 20  1  0  0  0  0
 19 45  1  0  0  0  0
 19 46  1  0  0  0  0
 20 21  1  0  0  0  0
 20 25  1  0  0  0  0
 20 47  1  0  0  0  0
 21 22  1  0  0  0  0
 21 48  1  0  0  0  0
 21 49  1  0  0  0  0
 22 23  1  0  0  0  0
 22 50  1  0  0  0  0
 22 51  1  0  0  0  0
 23 24  1  0  0  0  0
 23 52  1  0  0  0  0
 23 53  1  0  0  0  0
 24 25  1  0  0  0  0
 24 54  1  0  0  0  0
 24 55  1  0  0  0  0
 25 56  1  0  0  0  0
 25 57  1  0  0  0  0
 27 28  1  0  0  0  0
 27 58  1  0  0  0  0
 28 29  1  0  0  0  0
 28 59  1  0  0  0  0
 28 60  1  0  0  0  0
 29 30  1  0  0  0  0
 29 61  1  0  0  0  0
 29 62  1  0  0  0  0
 30 31  1  0  0  0  0
 31 63  1  0  0  0  0
 31 64  1  0  0  0  0
 31 65  1  0  0  0  0
M  CHG  1  16   1
M  END
> <BIOSOLVEIT.HYDE_ESTIMATED_AFFINITY_LOWER_BOUNDARY [nM]>
2297649.012336

> <BIOSOLVEIT.HYDE_ESTIMATED_AFFINITY_UPPER_BOUNDARY [nM]>
228285014.151616

> <BIOSOLVEIT.HYDE_LIGAND_EFFICIENCY range: ++, +, 0, -, -->
--

> <BIOSOLVEIT.HYDE_LIGAND_LIPOPHILIC_EFFICIENCY range: ++, +, 0, -, -->
--

> <BIOSOLVEIT.INTER_CLASH range: red, yellow, green>
green

> <BIOSOLVEIT.INTRA_CLASH range: red, yellow, green>
green

> <BIOSOLVEIT.LOGP>
4.1786

> <BIOSOLVEIT.MOLECULAR WEIGHT>
465.078

> <BIOSOLVEIT.MOLECULE_CHECKSUM>
LTkuMzYxODI7MC4zMDE5OTQ=

> <BIOSOLVEIT.TORSION_QUALITY range: red, yellow, green, not rotatable>
green

> <BIOSOLVEIT.TPSA>
66.97

$$$$
G3.sdf
b8Hydescor01032215413D 1   1.00000     0.00000     0
Hydescorer 1.1.2 b8048283
 66 68  0  0  0  0            999 V2000
   22.5720  -39.7481  -10.2272 C   0  0  0  0  0  0  0  0  0  0  0  0
   21.6679  -40.5555  -10.9106 C   0  0  0  0  0  0  0  0  0  0  0  0
   20.6205  -39.9834  -11.6262 C   0  0  0  0  0  0  0  0  0  0  0  0
   20.4734  -38.5945  -11.6531 C   0  0  0  0  0  0  0  0  0  0  0  0
   21.3842  -37.7765  -10.9802 C   0  0  0  0  0  0  0  0  0  0  0  0
   22.4277  -38.3591  -10.2662 C   0  0  0  0  0  0  0  0  0  0  0  0
   23.5588  -37.3544   -9.4207 Cl  0  0  0  0  0  0  0  0  0  0  0  0
   19.4011  -38.0699  -12.3858 N   0  0  0  0  0  0  0  0  0  0  0  0
   18.2475  -38.9014  -12.7469 C   0  0  0  0  0  0  0  0  0  0  0  0
   17.0785  -38.3721  -11.9352 C   0  0  0  0  0  0  0  0  0  0  0  0
   15.8046  -38.8673  -11.9011 C   0  0  0  0  0  0  0  0  0  0  0  0
   14.9609  -38.1585  -11.0304 C   0  0  0  0  0  0  0  0  0  0  0  0
   15.5948  -37.1237  -10.4029 C   0  0  0  0  0  0  0  0  0  0  0  0
   17.2432  -36.9951  -10.8982 S   0  0  0  0  0  0  0  0  0  0  0  0
   15.0366  -36.1489   -9.4061 C   0  0  0  0  0  0  0  0  0  0  0  0
   14.1928  -35.3199  -10.2552 N   0  3  0  0  0  0  0  0  0  0  0  0
   15.0881  -34.3470  -10.9427 C   0  0  2  0  0  0  0  0  0  0  0  0
   15.3100  -33.0980  -10.0481 C   0  0  0  0  0  0  0  0  0  0  0  0
   14.5189  -34.0214  -12.3338 C   0  0  0  0  0  0  0  0  0  0  0  0
   15.4463  -34.4190  -13.5005 C   0  0  0  0  0  0  0  0  0  0  0  0
   16.9373  -34.3135  -13.1190 C   0  0  0  0  0  0  0  0  0  0  0  0
   17.8370  -34.7771  -14.2739 C   0  0  0  0  0  0  0  0  0  0  0  0
   17.4911  -36.2069  -14.7081 C   0  0  0  0  0  0  0  0  0  0  0  0
   16.0104  -36.3145  -15.0923 C   0  0  0  0  0  0  0  0  0  0  0  0
   15.1103  -35.8578  -13.9357 C   0  0  0  0  0  0  0  0  0  0  0  0
   14.4600  -32.8089   -9.2156 O   0  0  0  0  0  0  0  0  0  0  0  0
   16.2884  -32.2536  -10.3899 N   0  0  0  0  0  0  0  0  0  0  0  0
   16.5523  -31.0598   -9.5940 C   0  0  0  0  0  0  0  0  0  0  0  0
   16.3826  -29.8194  -10.4991 C   0  0  0  0  0  0  0  0  0  0  0  0
   17.1999  -29.8725  -11.6846 O   0  0  0  0  0  0  0  0  0  0  0  0
   18.5188  -29.3805  -11.4615 C   0  0  0  0  0  0  0  0  0  0  0  0
   23.3221  -40.1605   -9.7102 H   0  0  0  0  0  0  0  0  0  0  0  0
   21.7713  -41.5499  -10.8873 H   0  0  0  0  0  0  0  0  0  0  0  0
   19.9745  -40.5654  -12.1201 H   0  0  0  0  0  0  0  0  0  0  0  0
   21.2876  -36.7817  -11.0112 H   0  0  0  0  0  0  0  0  0  0  0  0
   19.4222  -37.1107  -12.6679 H   0  0  0  0  0  0  0  0  0  0  0  0
   18.4242  -39.8586  -12.5180 H   0  0  0  0  0  0  0  0  0  0  0  0
   18.0551  -38.8225  -13.7251 H   0  0  0  0  0  0  0  0  0  0  0  0
   15.5043  -39.6536  -12.4409 H   0  0  0  0  0  0  0  0  0  0  0  0
   13.9983  -38.3871  -10.8851 H   0  0  0  0  0  0  0  0  0  0  0  0
   15.7613  -35.6116   -8.9748 H   0  0  0  0  0  0  0  0  0  0  0  0
   14.5012  -36.6134   -8.7007 H   0  0  0  0  0  0  0  0  0  0  0  0
   13.5191  -34.8331   -9.6992 H   0  0  0  0  0  0  0  0  0  0  0  0
   15.9754  -34.7894  -11.0730 H   0  0  0  0  0  0  0  0  0  0  0  0
   14.3554  -33.0361  -12.3838 H   0  0  0  0  0  0  0  0  0  0  0  0
   13.6523  -34.5090  -12.4409 H   0  0  0  0  0  0  0  0  0  0  0  0
   15.2707  -33.8048  -14.2699 H   0  0  0  0  0  0  0  0  0  0  0  0
   17.1112  -34.8875  -12.3188 H   0  0  0  0  0  0  0  0  0  0  0  0
   17.1519  -33.3617  -12.8996 H   0  0  0  0  0  0  0  0  0  0  0  0
   18.7911  -34.7487  -13.9757 H   0  0  0  0  0  0  0  0  0  0  0  0
   17.7124  -34.1611  -15.0517 H   0  0  0  0  0  0  0  0  0  0  0  0
   17.6804  -36.8341  -13.9525 H   0  0  0  0  0  0  0  0  0  0  0  0
   18.0536  -36.4555  -15.4966 H   0  0  0  0  0  0  0  0  0  0  0  0
   15.7984  -37.2657  -15.3163 H   0  0  0  0  0  0  0  0  0  0  0  0
   15.8363  -35.7373  -15.8903 H   0  0  0  0  0  0  0  0  0  0  0  0
   14.1558  -35.8942  -14.2316 H   0  0  0  0  0  0  0  0  0  0  0  0
   15.2420  -36.4726  -13.1581 H   0  0  0  0  0  0  0  0  0  0  0  0
   16.8448  -32.4421  -11.1991 H   0  0  0  0  0  0  0  0  0  0  0  0
   17.4861  -31.0918   -9.2373 H   0  0  0  0  0  0  0  0  0  0  0  0
   15.9061  -31.0126   -8.8324 H   0  0  0  0  0  0  0  0  0  0  0  0
   16.6335  -29.0055   -9.9751 H   0  0  0  0  0  0  0  0  0  0  0  0
   15.4237  -29.7553  -10.7756 H   0  0  0  0  0  0  0  0  0  0  0  0
   19.0442  -29.4382  -12.3105 H   0  0  0  0  0  0  0  0  0  0  0  0
   18.4728  -28.4275  -11.1621 H   0  0  0  0  0  0  0  0  0  0  0  0
   18.9649  -29.9306  -10.7555 H   0  0  0  0  0  0  0  0  0  0  0  0
   13.7207  -35.8878  -10.9294 H   0  0  0  0  0  0  0  0  0  0  0  0
  1  2  2  0  0  0  0
  1  6  1  0  0  0  0
  1 32  1  0  0  0  0
  2  3  1  0  0  0  0
  2 33  1  0  0  0  0
  3  4  2  0  0  0  0
  3 34  1  0  0  0  0
  4  5  1  0  0  0  0
  4  8  1  0  0  0  0
  5  6  2  0  0  0  0
  5 35  1  0  0  0  0
  6  7  1  0  0  0  0
  8  9  1  0  0  0  0
  8 36  1  0  0  0  0
  9 10  1  0  0  0  0
  9 37  1  0  0  0  0
  9 38  1  0  0  0  0
 10 11  2  0  0  0  0
 10 14  1  0  0  0  0
 11 12  1  0  0  0  0
 11 39  1  0  0  0  0
 12 13  2  0  0  0  0
 12 40  1  0  0  0  0
 13 14  1  0  0  0  0
 13 15  1  0  0  0  0
 15 16  1  0  0  0  0
 15 41  1  0  0  0  0
 15 42  1  0  0  0  0
 16 17  1  0  0  0  0
 16 43  1  0  0  0  0
 16 66  1  0  0  0  0
 17 18  1  0  0  0  0
 17 19  1  0  0  0  0
 17 44  1  0  0  0  0
 18 26  2  0  0  0  0
 18 27  1  0  0  0  0
 19 20  1  0  0  0  0
 19 45  1  0  0  0  0
 19 46  1  0  0  0  0
 20 21  1  0  0  0  0
 20 25  1  0  0  0  0
 20 47  1  0  0  0  0
 21 22  1  0  0  0  0
 21 48  1  0  0  0  0
 21 49  1  0  0  0  0
 22 23  1  0  0  0  0
 22 50  1  0  0  0  0
 22 51  1  0  0  0  0
 23 24  1  0  0  0  0
 23 52  1  0  0  0  0
 23 53  1  0  0  0  0
 24 25  1  0  0  0  0
 24 54  1  0  0  0  0
 24 55  1  0  0  0  0
 25 56  1  0  0  0  0
 25 57  1  0  0  0  0
 27 28  1  0  0  0  0
 27 58  1  0  0  0  0
 28 29  1  0  0  0  0
 28 59  1  0  0  0  0
 28 60  1  0  0  0  0
 29 30  1  0  0  0  0
 29 61  1  0  0  0  0
 29 62  1  0  0  0  0
 30 31  1  0  0  0  0
 31 63  1  0  0  0  0
 31 64  1  0  0  0  0
 31 65  1  0  0  0  0
M  CHG  1  16   1
M  END
> <BIOSOLVEIT.HYDE_ESTIMATED_AFFINITY_LOWER_BOUNDARY [nM]>
1274715.994236

> <BIOSOLVEIT.HYDE_ESTIMATED_AFFINITY_UPPER_BOUNDARY [nM]>
126650570.744782

> <BIOSOLVEIT.HYDE_LIGAND_EFFICIENCY range: ++, +, 0, -, -->
--

> <BIOSOLVEIT.HYDE_LIGAND_LIPOPHILIC_EFFICIENCY range: ++, +, 0, -, -->
--

> <BIOSOLVEIT.INTER_CLASH range: red, yellow, green>
green

> <BIOSOLVEIT.INTRA_CLASH range: red, yellow, green>
green

> <BIOSOLVEIT.LOGP>
4.1786

> <BIOSOLVEIT.MOLECULAR WEIGHT>
465.078

> <BIOSOLVEIT.MOLECULE_CHECKSUM>
LTEwLjgyMjM7MC4zNDkxMDc=

> <BIOSOLVEIT.TORSION_QUALITY range: red, yellow, green, not rotatable>
red

> <BIOSOLVEIT.TPSA>
66.97

$$$$
Z28053011.****
b8Hydescor01032215413D 1   1.00000     0.00000     0
Hydescorer 1.1.2 b8048283
 44 47  0  0  0  0            999 V2000
   14.6041  -41.2064  -12.0110 C   0  0  0  0  0  0  0  0  0  0  0  0
   14.2865  -39.9361  -12.4840 C   0  0  0  0  0  0  0  0  0  0  0  0
   15.3004  -39.0600  -12.8555 C   0  0  0  0  0  0  0  0  0  0  0  0
   16.6472  -39.4327  -12.7604 C   0  0  0  0  0  0  0  0  0  0  0  0
   16.9478  -40.7245  -12.2996 C   0  0  0  0  0  0  0  0  0  0  0  0
   15.9367  -41.6015  -11.9216 C   0  0  0  0  0  0  0  0  0  0  0  0
   13.3418  -42.2930  -11.5350 Cl  0  0  0  0  0  0  0  0  0  0  0  0
   17.7239  -38.3951  -13.1637 C   0  0  0  0  0  0  0  0  0  0  0  0
   17.0822  -36.9832  -13.2720 C   0  0  0  0  0  0  0  0  0  0  0  0
   18.3328  -38.8289  -14.5151 C   0  0  0  0  0  0  0  0  0  0  0  0
   19.3040  -39.9381  -14.1069 C   0  0  0  0  0  0  0  0  0  0  0  0
   19.8850  -39.4786  -12.7656 C   0  0  0  0  0  0  0  0  0  0  0  0
   18.9703  -38.3581  -12.2401 C   0  0  0  0  0  0  0  0  0  0  0  0
   16.6025  -36.2808  -12.1996 N   0  0  0  0  0  0  0  0  0  0  0  0
   16.9613  -36.3963  -14.3277 O   0  0  0  0  0  0  0  0  0  0  0  0
   16.0133  -35.0074  -12.2253 C   0  0  0  0  0  0  0  0  0  0  0  0
   16.5835  -33.9722  -11.4925 C   0  0  0  0  0  0  0  0  0  0  0  0
   16.0286  -32.6987  -11.6096 C   0  0  0  0  0  0  0  0  0  0  0  0
   14.8943  -32.4643  -12.3944 C   0  0  0  0  0  0  0  0  0  0  0  0
   14.3136  -33.5287  -13.0831 C   0  0  0  0  0  0  0  0  0  0  0  0
   14.8704  -34.8041  -13.0021 C   0  0  0  0  0  0  0  0  0  0  0  0
   16.6575  -31.5953  -10.9285 N   0  0  0  0  0  0  0  0  0  0  0  0
   17.3969  -30.6788  -11.5325 N   0  0  0  0  0  0  0  0  0  0  0  0
   17.7929  -29.8767  -10.5873 N   0  0  0  0  0  0  0  0  0  0  0  0
   17.3039  -30.2835   -9.3836 N   0  0  0  0  0  0  0  0  0  0  0  0
   16.6166  -31.3346   -9.6297 C   0  0  0  0  0  0  0  0  0  0  0  0
   13.3299  -39.6538  -12.5566 H   0  0  0  0  0  0  0  0  0  0  0  0
   15.0644  -38.1499  -13.1957 H   0  0  0  0  0  0  0  0  0  0  0  0
   17.9021  -41.0180  -12.2424 H   0  0  0  0  0  0  0  0  0  0  0  0
   16.1663  -42.5151  -11.5860 H   0  0  0  0  0  0  0  0  0  0  0  0
   18.8155  -38.0704  -14.9530 H   0  0  0  0  0  0  0  0  0  0  0  0
   17.6278  -39.1766  -15.1331 H   0  0  0  0  0  0  0  0  0  0  0  0
   20.0290  -40.0394  -14.7882 H   0  0  0  0  0  0  0  0  0  0  0  0
   18.8212  -40.8076  -14.0021 H   0  0  0  0  0  0  0  0  0  0  0  0
   20.8139  -39.1317  -12.8944 H   0  0  0  0  0  0  0  0  0  0  0  0
   19.9006  -40.2410  -12.1188 H   0  0  0  0  0  0  0  0  0  0  0  0
   18.7100  -38.5326  -11.2905 H   0  0  0  0  0  0  0  0  0  0  0  0
   19.4285  -37.4714  -12.3026 H   0  0  0  0  0  0  0  0  0  0  0  0
   16.6799  -36.7208  -11.3049 H   0  0  0  0  0  0  0  0  0  0  0  0
   17.3702  -34.1367  -10.8977 H   0  0  0  0  0  0  0  0  0  0  0  0
   14.5051  -31.5455  -12.4605 H   0  0  0  0  0  0  0  0  0  0  0  0
   13.4949  -33.3766  -13.6369 H   0  0  0  0  0  0  0  0  0  0  0  0
   14.4549  -35.5677  -13.4964 H   0  0  0  0  0  0  0  0  0  0  0  0
   16.1247  -31.8756   -8.9475 H   0  0  0  0  0  0  0  0  0  0  0  0
  1  2  2  0  0  0  0
  1  6  1  0  0  0  0
  1  7  1  0  0  0  0
  2  3  1  0  0  0  0
  2 27  1  0  0  0  0
  3  4  2  0  0  0  0
  3 28  1  0  0  0  0
  4  5  1  0  0  0  0
  4  8  1  0  0  0  0
  5  6  2  0  0  0  0
  5 29  1  0  0  0  0
  6 30  1  0  0  0  0
  8  9  1  0  0  0  0
  8 10  1  0  0  0  0
  8 13  1  0  0  0  0
  9 14  1  0  0  0  0
  9 15  2  0  0  0  0
 10 11  1  0  0  0  0
 10 31  1  0  0  0  0
 10 32  1  0  0  0  0
 11 12  1  0  0  0  0
 11 33  1  0  0  0  0
 11 34  1  0  0  0  0
 12 13  1  0  0  0  0
 12 35  1  0  0  0  0
 12 36  1  0  0  0  0
 13 37  1  0  0  0  0
 13 38  1  0  0  0  0
 14 16  1  0  0  0  0
 14 39  1  0  0  0  0
 16 17  2  0  0  0  0
 16 21  1  0  0  0  0
 17 18  1  0  0  0  0
 17 40  1  0  0  0  0
 18 19  2  0  0  0  0
 18 22  1  0  0  0  0
 19 20  1  0  0  0  0
 19 41  1  0  0  0  0
 20 21  2  0  0  0  0
 20 42  1  0  0  0  0
 21 43  1  0  0  0  0
 22 23  1  0  0  0  0
 22 26  1  0  0  0  0
 23 24  2  0  0  0  0
 24 25  1  0  0  0  0
 25 26  2  0  0  0  0
 26 44  1  0  0  0  0
M  END
> <BIOSOLVEIT.HYDE_ESTIMATED_AFFINITY_LOWER_BOUNDARY [nM]>
2289117095.641678

> <BIOSOLVEIT.HYDE_ESTIMATED_AFFINITY_UPPER_BOUNDARY [nM]>
227437317783.393066

> <BIOSOLVEIT.HYDE_LIGAND_EFFICIENCY range: ++, +, 0, -, -->
--

> <BIOSOLVEIT.HYDE_LIGAND_LIPOPHILIC_EFFICIENCY range: ++, +, 0, -, -->
--

> <BIOSOLVEIT.INTER_CLASH range: red, yellow, green>
green

> <BIOSOLVEIT.INTRA_CLASH range: red, yellow, green>
green

> <BIOSOLVEIT.LOGP>
3.7662

> <BIOSOLVEIT.MOLECULAR WEIGHT>
367.838

> <BIOSOLVEIT.MOLECULE_CHECKSUM>
Ny43NTI5OTsw

> <BIOSOLVEIT.TORSION_QUALITY range: red, yellow, green, not rotatable>
yellow

> <BIOSOLVEIT.TPSA>
72.7

$$$$
Z28053011.****
b8Hydescor01032215413D 1   1.00000     0.00000     0
Hydescorer 1.1.2 b8048283
 44 47  0  0  0  0            999 V2000
   20.6220  -37.9736  -12.6215 C   0  0  0  0  0  0  0  0  0  0  0  0
   20.3518  -38.6344  -13.8169 C   0  0  0  0  0  0  0  0  0  0  0  0
   19.0366  -38.8025  -14.2354 C   0  0  0  0  0  0  0  0  0  0  0  0
   17.9680  -38.3180  -13.4703 C   0  0  0  0  0  0  0  0  0  0  0  0
   18.2602  -37.6374  -12.2777 C   0  0  0  0  0  0  0  0  0  0  0  0
   19.5742  -37.4722  -11.8526 C   0  0  0  0  0  0  0  0  0  0  0  0
   22.2597  -37.7760  -12.0928 Cl  0  0  0  0  0  0  0  0  0  0  0  0
   16.5281  -38.5676  -13.9834 C   0  0  0  0  0  0  0  0  0  0  0  0
   16.2130  -40.0896  -13.9519 C   0  0  0  0  0  0  0  0  0  0  0  0
   16.4230  -38.0126  -15.4209 C   0  0  0  0  0  0  0  0  0  0  0  0
   16.2677  -36.5082  -15.1911 C   0  0  0  0  0  0  0  0  0  0  0  0
   15.4075  -36.3896  -13.9287 C   0  0  0  0  0  0  0  0  0  0  0  0
   15.4252  -37.7668  -13.2420 C   0  0  0  0  0  0  0  0  0  0  0  0
   16.1983  -40.8404  -12.8074 N   0  0  0  0  0  0  0  0  0  0  0  0
   15.9527  -40.7270  -14.9516 O   0  0  0  0  0  0  0  0  0  0  0  0
   15.9231  -42.2128  -12.7067 C   0  0  0  0  0  0  0  0  0  0  0  0
   14.7952  -42.6378  -12.0132 C   0  0  0  0  0  0  0  0  0  0  0  0
   14.4998  -44.0003  -12.0076 C   0  0  0  0  0  0  0  0  0  0  0  0
   15.3369  -44.9328  -12.6300 C   0  0  0  0  0  0  0  0  0  0  0  0
   16.4868  -44.4855  -13.2797 C   0  0  0  0  0  0  0  0  0  0  0  0
   16.7846  -43.1243  -13.3213 C   0  0  0  0  0  0  0  0  0  0  0  0
   13.2889  -44.4518  -11.3702 N   0  0  0  0  0  0  0  0  0  0  0  0
   12.5535  -45.4600  -11.8109 N   0  0  0  0  0  0  0  0  0  0  0  0
   11.5502  -45.5421  -10.9861 N   0  0  0  0  0  0  0  0  0  0  0  0
   11.6493  -44.5866  -10.0213 N   0  0  0  0  0  0  0  0  0  0  0  0
   12.7213  -43.9401  -10.2874 C   0  0  0  0  0  0  0  0  0  0  0  0
   21.1032  -38.9878  -14.3741 H   0  0  0  0  0  0  0  0  0  0  0  0
   18.8506  -39.2768  -15.0959 H   0  0  0  0  0  0  0  0  0  0  0  0
   17.5132  -37.2662  -11.7261 H   0  0  0  0  0  0  0  0  0  0  0  0
   19.7666  -36.9938  -10.9958 H   0  0  0  0  0  0  0  0  0  0  0  0
   15.6270  -38.3889  -15.8952 H   0  0  0  0  0  0  0  0  0  0  0  0
   17.2497  -38.2136  -15.9462 H   0  0  0  0  0  0  0  0  0  0  0  0
   15.8107  -36.0786  -15.9700 H   0  0  0  0  0  0  0  0  0  0  0  0
   17.1602  -36.0797  -15.0504 H   0  0  0  0  0  0  0  0  0  0  0  0
   14.4707  -36.1399  -14.1735 H   0  0  0  0  0  0  0  0  0  0  0  0
   15.7885  -35.6960  -13.3174 H   0  0  0  0  0  0  0  0  0  0  0  0
   15.6498  -37.6735  -12.2720 H   0  0  0  0  0  0  0  0  0  0  0  0
   14.5382  -38.2188  -13.3367 H   0  0  0  0  0  0  0  0  0  0  0  0
   16.4051  -40.3612  -11.9544 H   0  0  0  0  0  0  0  0  0  0  0  0
   14.2118  -41.9839  -11.5316 H   0  0  0  0  0  0  0  0  0  0  0  0
   15.1134  -45.9073  -12.6092 H   0  0  0  0  0  0  0  0  0  0  0  0
   17.0998  -45.1434  -13.7172 H   0  0  0  0  0  0  0  0  0  0  0  0
   17.6087  -42.8029  -13.7877 H   0  0  0  0  0  0  0  0  0  0  0  0
   13.0758  -43.1682   -9.7597 H   0  0  0  0  0  0  0  0  0  0  0  0
  1  2  2  0  0  0  0
  1  6  1  0  0  0  0
  1  7  1  0  0  0  0
  2  3  1  0  0  0  0
  2 27  1  0  0  0  0
  3  4  2  0  0  0  0
  3 28  1  0  0  0  0
  4  5  1  0  0  0  0
  4  8  1  0  0  0  0
  5  6  2  0  0  0  0
  5 29  1  0  0  0  0
  6 30  1  0  0  0  0
  8  9  1  0  0  0  0
  8 10  1  0  0  0  0
  8 13  1  0  0  0  0
  9 14  1  0  0  0  0
  9 15  2  0  0  0  0
 10 11  1  0  0  0  0
 10 31  1  0  0  0  0
 10 32  1  0  0  0  0
 11 12  1  0  0  0  0
 11 33  1  0  0  0  0
 11 34  1  0  0  0  0
 12 13  1  0  0  0  0
 12 35  1  0  0  0  0
 12 36  1  0  0  0  0
 13 37  1  0  0  0  0
 13 38  1  0  0  0  0
 14 16  1  0  0  0  0
 14 39  1  0  0  0  0
 16 17  2  0  0  0  0
 16 21  1  0  0  0  0
 17 18  1  0  0  0  0
 17 40  1  0  0  0  0
 18 19  2  0  0  0  0
 18 22  1  0  0  0  0
 19 20  1  0  0  0  0
 19 41  1  0  0  0  0
 20 21  2  0  0  0  0
 20 42  1  0  0  0  0
 21 43  1  0  0  0  0
 22 23  1  0  0  0  0
 22 26  1  0  0  0  0
 23 24  2  0  0  0  0
 24 25  1  0  0  0  0
 25 26  2  0  0  0  0
 26 44  1  0  0  0  0
M  END
> <BIOSOLVEIT.HYDE_ESTIMATED_AFFINITY_LOWER_BOUNDARY [nM]>
242049659.653004

> <BIOSOLVEIT.HYDE_ESTIMATED_AFFINITY_UPPER_BOUNDARY [nM]>
24049064797.373596

> <BIOSOLVEIT.HYDE_LIGAND_EFFICIENCY range: ++, +, 0, -, -->
--

> <BIOSOLVEIT.HYDE_LIGAND_LIPOPHILIC_EFFICIENCY range: ++, +, 0, -, -->
--

> <BIOSOLVEIT.INTER_CLASH range: red, yellow, green>
green

> <BIOSOLVEIT.INTRA_CLASH range: red, yellow, green>
green

> <BIOSOLVEIT.LOGP>
3.7662

> <BIOSOLVEIT.MOLECULAR WEIGHT>
367.838

> <BIOSOLVEIT.MOLECULE_CHECKSUM>
Mi4xODMzMjsw

> <BIOSOLVEIT.TORSION_QUALITY range: red, yellow, green, not rotatable>
yellow

> <BIOSOLVEIT.TPSA>
72.7

$$$$
Z28053011.****
b8Hydescor01032215413D 1   1.00000     0.00000     0
Hydescorer 1.1.2 b8048283
 44 47  0  0  0  0            999 V2000
   21.8816  -37.9914  -16.6233 C   0  0  0  0  0  0  0  0  0  0  0  0
   20.5338  -38.3326  -16.6961 C   0  0  0  0  0  0  0  0  0  0  0  0
   19.7201  -38.1893  -15.5779 C   0  0  0  0  0  0  0  0  0  0  0  0
   20.2343  -37.7063  -14.3679 C   0  0  0  0  0  0  0  0  0  0  0  0
   21.5912  -37.3491  -14.3186 C   0  0  0  0  0  0  0  0  0  0  0  0
   22.4098  -37.4963  -15.4334 C   0  0  0  0  0  0  0  0  0  0  0  0
   22.8989  -38.1829  -18.0123 Cl  0  0  0  0  0  0  0  0  0  0  0  0
   19.2763  -37.6011  -13.1555 C   0  0  0  0  0  0  0  0  0  0  0  0
   18.3619  -36.3537  -13.3118 C   0  0  0  0  0  0  0  0  0  0  0  0
   20.1290  -37.5022  -11.8714 C   0  0  0  0  0  0  0  0  0  0  0  0
   20.5514  -38.9532  -11.6344 C   0  0  0  0  0  0  0  0  0  0  0  0
   19.3393  -39.7900  -12.0565 C   0  0  0  0  0  0  0  0  0  0  0  0
   18.4255  -38.8705  -12.8862 C   0  0  0  0  0  0  0  0  0  0  0  0
   17.5504  -35.8754  -12.3184 N   0  0  0  0  0  0  0  0  0  0  0  0
   18.3035  -35.7068  -14.3372 O   0  0  0  0  0  0  0  0  0  0  0  0
   16.7028  -34.7593  -12.3908 C   0  0  0  0  0  0  0  0  0  0  0  0
   16.9820  -33.6343  -11.6229 C   0  0  0  0  0  0  0  0  0  0  0  0
   16.1741  -32.5095  -11.7839 C   0  0  0  0  0  0  0  0  0  0  0  0
   15.0744  -32.5166  -12.6489 C   0  0  0  0  0  0  0  0  0  0  0  0
   14.7883  -33.6730  -13.3737 C   0  0  0  0  0  0  0  0  0  0  0  0
   15.6010  -34.7987  -13.2484 C   0  0  0  0  0  0  0  0  0  0  0  0
   16.4994  -31.3045  -11.0635 N   0  0  0  0  0  0  0  0  0  0  0  0
   16.8685  -30.1736  -11.6435 N   0  0  0  0  0  0  0  0  0  0  0  0
   17.0880  -29.3408  -10.6679 N   0  0  0  0  0  0  0  0  0  0  0  0
   16.8572  -29.9428   -9.4688 N   0  0  0  0  0  0  0  0  0  0  0  0
   16.5004  -31.1395   -9.7485 C   0  0  0  0  0  0  0  0  0  0  0  0
   20.1512  -38.6805  -17.5520 H   0  0  0  0  0  0  0  0  0  0  0  0
   18.7526  -38.4348  -15.6385 H   0  0  0  0  0  0  0  0  0  0  0  0
   21.9745  -36.9837  -13.4703 H   0  0  0  0  0  0  0  0  0  0  0  0
   23.3768  -37.2469  -15.3807 H   0  0  0  0  0  0  0  0  0  0  0  0
   19.5881  -37.1545  -11.1056 H   0  0  0  0  0  0  0  0  0  0  0  0
   20.9249  -36.9133  -12.0118 H   0  0  0  0  0  0  0  0  0  0  0  0
   20.7646  -39.1045  -10.6692 H   0  0  0  0  0  0  0  0  0  0  0  0
   21.3491  -39.1831  -12.1919 H   0  0  0  0  0  0  0  0  0  0  0  0
   18.8517  -40.1203  -11.2483 H   0  0  0  0  0  0  0  0  0  0  0  0
   19.6354  -40.5692  -12.6089 H   0  0  0  0  0  0  0  0  0  0  0  0
   18.1697  -39.3118  -13.7464 H   0  0  0  0  0  0  0  0  0  0  0  0
   17.5997  -38.6383  -12.3723 H   0  0  0  0  0  0  0  0  0  0  0  0
   17.5630  -36.3730  -11.4511 H   0  0  0  0  0  0  0  0  0  0  0  0
   17.7417  -33.6320  -10.9726 H   0  0  0  0  0  0  0  0  0  0  0  0
   14.5012  -31.7030  -12.7461 H   0  0  0  0  0  0  0  0  0  0  0  0
   13.9975  -33.6948  -13.9854 H   0  0  0  0  0  0  0  0  0  0  0  0
   15.3967  -35.6280  -13.7685 H   0  0  0  0  0  0  0  0  0  0  0  0
   16.2596  -31.8417   -9.0785 H   0  0  0  0  0  0  0  0  0  0  0  0
  1  2  2  0  0  0  0
  1  6  1  0  0  0  0
  1  7  1  0  0  0  0
  2  3  1  0  0  0  0
  2 27  1  0  0  0  0
  3  4  2  0  0  0  0
  3 28  1  0  0  0  0
  4  5  1  0  0  0  0
  4  8  1  0  0  0  0
  5  6  2  0  0  0  0
  5 29  1  0  0  0  0
  6 30  1  0  0  0  0
  8  9  1  0  0  0  0
  8 10  1  0  0  0  0
  8 13  1  0  0  0  0
  9 14  1  0  0  0  0
  9 15  2  0  0  0  0
 10 11  1  0  0  0  0
 10 31  1  0  0  0  0
 10 32  1  0  0  0  0
 11 12  1  0  0  0  0
 11 33  1  0  0  0  0
 11 34  1  0  0  0  0
 12 13  1  0  0  0  0
 12 35  1  0  0  0  0
 12 36  1  0  0  0  0
 13 37  1  0  0  0  0
 13 38  1  0  0  0  0
 14 16  1  0  0  0  0
 14 39  1  0  0  0  0
 16 17  2  0  0  0  0
 16 21  1  0  0  0  0
 17 18  1  0  0  0  0
 17 40  1  0  0  0  0
 18 19  2  0  0  0  0
 18 22  1  0  0  0  0
 19 20  1  0  0  0  0
 19 41  1  0  0  0  0
 20 21  2  0  0  0  0
 20 42  1  0  0  0  0
 21 43  1  0  0  0  0
 22 23  1  0  0  0  0
 22 26  1  0  0  0  0
 23 24  2  0  0  0  0
 24 25  1  0  0  0  0
 25 26  2  0  0  0  0
 26 44  1  0  0  0  0
M  END
> <BIOSOLVEIT.HYDE_ESTIMATED_AFFINITY_LOWER_BOUNDARY [nM]>
319359393.974733

> <BIOSOLVEIT.HYDE_ESTIMATED_AFFINITY_UPPER_BOUNDARY [nM]>
31730243993.561428

> <BIOSOLVEIT.HYDE_LIGAND_EFFICIENCY range: ++, +, 0, -, -->
--

> <BIOSOLVEIT.HYDE_LIGAND_LIPOPHILIC_EFFICIENCY range: ++, +, 0, -, -->
--

> <BIOSOLVEIT.INTER_CLASH range: red, yellow, green>
green

> <BIOSOLVEIT.INTRA_CLASH range: red, yellow, green>
green

> <BIOSOLVEIT.LOGP>
3.7662

> <BIOSOLVEIT.MOLECULAR WEIGHT>
367.838

> <BIOSOLVEIT.MOLECULE_CHECKSUM>
Mi44NzA0Mjsw

> <BIOSOLVEIT.TORSION_QUALITY range: red, yellow, green, not rotatable>
red

> <BIOSOLVEIT.TPSA>
72.7

$$$$
Z1344352878.****
b8Hydescor01032215413D 1   1.00000     0.00000     0
Hydescorer 1.1.2 b8048283
 43 44  0  0  0  0            999 V2000
   20.5593  -40.9075  -11.3361 C   0  0  0  0  0  0  0  0  0  0  0  0
   19.7992  -42.0089  -11.7146 C   0  0  0  0  0  0  0  0  0  0  0  0
   18.5734  -41.8130  -12.3305 C   0  0  0  0  0  0  0  0  0  0  0  0
   18.1499  -40.5083  -12.5363 C   0  0  0  0  0  0  0  0  0  0  0  0
   18.9578  -39.4438  -12.1376 C   0  0  0  0  0  0  0  0  0  0  0  0
   20.1447  -39.6570  -11.5631 N   0  0  0  0  0  0  0  0  0  0  0  0
   18.4960  -38.0123  -12.3306 C   0  0  0  0  0  0  0  0  0  0  0  0
   17.5117  -37.6320  -11.2043 C   0  0  0  0  0  0  0  0  0  0  0  0
   16.0868  -37.3739  -11.6941 C   0  0  0  0  0  0  0  0  0  0  0  0
   15.1276  -36.9086  -10.8664 N   0  0  0  0  0  0  0  0  0  0  0  0
   15.8234  -37.6056  -12.8669 O   0  0  0  0  0  0  0  0  0  0  0  0
   13.8541  -36.3649  -11.3756 C   0  0  0  0  0  0  0  0  0  0  0  0
   14.1513  -34.8711  -11.6701 C   0  0  0  0  0  0  0  0  0  0  0  0
   14.5869  -34.1786  -10.3943 N   0  3  0  0  0  0  0  0  0  0  0  0
   15.8547  -34.8299   -9.8898 C   0  0  0  0  0  0  0  0  0  0  0  0
   15.5389  -36.3113   -9.5734 C   0  0  0  0  0  0  0  0  0  0  0  0
   14.8576  -32.6679  -10.6527 C   0  0  2  0  0  0  0  0  0  0  0  0
   15.6284  -32.3595  -12.0133 C   0  0  0  0  0  0  0  0  0  0  0  0
   15.6197  -32.0444   -9.4491 C   0  0  0  0  0  0  0  0  0  0  0  0
   16.6284  -33.2308  -12.1882 F   0  0  0  0  0  0  0  0  0  0  0  0
   14.7821  -32.4143  -13.0608 F   0  0  0  0  0  0  0  0  0  0  0  0
   16.1295  -31.1152  -11.9326 F   0  0  0  0  0  0  0  0  0  0  0  0
   21.4384  -41.0547  -10.8827 H   0  0  0  0  0  0  0  0  0  0  0  0
   20.1347  -42.9353  -11.5434 H   0  0  0  0  0  0  0  0  0  0  0  0
   18.0113  -42.5886  -12.6179 H   0  0  0  0  0  0  0  0  0  0  0  0
   17.2664  -40.3312  -12.9700 H   0  0  0  0  0  0  0  0  0  0  0  0
   18.0389  -37.9262  -13.2159 H   0  0  0  0  0  0  0  0  0  0  0  0
   19.2866  -37.4007  -12.3029 H   0  0  0  0  0  0  0  0  0  0  0  0
   17.8475  -36.8021  -10.7586 H   0  0  0  0  0  0  0  0  0  0  0  0
   17.4869  -38.3798  -10.5409 H   0  0  0  0  0  0  0  0  0  0  0  0
   13.1337  -36.4519  -10.6876 H   0  0  0  0  0  0  0  0  0  0  0  0
   13.5767  -36.8402  -12.2106 H   0  0  0  0  0  0  0  0  0  0  0  0
   13.3256  -34.4306  -12.0227 H   0  0  0  0  0  0  0  0  0  0  0  0
   14.8810  -34.8048  -12.3506 H   0  0  0  0  0  0  0  0  0  0  0  0
   16.1684  -34.3655   -9.0616 H   0  0  0  0  0  0  0  0  0  0  0  0
   16.5656  -34.7769  -10.5911 H   0  0  0  0  0  0  0  0  0  0  0  0
   16.3504  -36.7739   -9.2163 H   0  0  0  0  0  0  0  0  0  0  0  0
   14.7972  -36.3764   -8.9059 H   0  0  0  0  0  0  0  0  0  0  0  0
   13.9686  -32.2133  -10.7071 H   0  0  0  0  0  0  0  0  0  0  0  0
   15.7875  -31.0748   -9.6270 H   0  0  0  0  0  0  0  0  0  0  0  0
   15.0691  -32.1408   -8.6199 H   0  0  0  0  0  0  0  0  0  0  0  0
   16.4926  -32.5168   -9.3264 H   0  0  0  0  0  0  0  0  0  0  0  0
   13.8690  -34.2730   -9.7046 H   0  0  0  0  0  0  0  0  0  0  0  0
  1  2  2  0  0  0  0
  1  6  1  0  0  0  0
  1 23  1  0  0  0  0
  2  3  1  0  0  0  0
  2 24  1  0  0  0  0
  3  4  2  0  0  0  0
  3 25  1  0  0  0  0
  4  5  1  0  0  0  0
  4 26  1  0  0  0  0
  5  6  2  0  0  0  0
  5  7  1  0  0  0  0
  7  8  1  0  0  0  0
  7 27  1  0  0  0  0
  7 28  1  0  0  0  0
  8  9  1  0  0  0  0
  8 29  1  0  0  0  0
  8 30  1  0  0  0  0
  9 10  1  0  0  0  0
  9 11  2  0  0  0  0
 10 12  1  0  0  0  0
 10 16  1  0  0  0  0
 12 13  1  0  0  0  0
 12 31  1  0  0  0  0
 12 32  1  0  0  0  0
 13 14  1  0  0  0  0
 13 33  1  0  0  0  0
 13 34  1  0  0  0  0
 14 15  1  0  0  0  0
 14 17  1  0  0  0  0
 14 43  1  0  0  0  0
 15 16  1  0  0  0  0
 15 35  1  0  0  0  0
 15 36  1  0  0  0  0
 16 37  1  0  0  0  0
 16 38  1  0  0  0  0
 17 18  1  0  0  0  0
 17 19  1  0  0  0  0
 17 39  1  0  0  0  0
 18 20  1  0  0  0  0
 18 21  1  0  0  0  0
 18 22  1  0  0  0  0
 19 40  1  0  0  0  0
 19 41  1  0  0  0  0
 19 42  1  0  0  0  0
M  CHG  1  14   1
M  END
> <BIOSOLVEIT.HYDE_ESTIMATED_AFFINITY_LOWER_BOUNDARY [nM]>
2568967.708559

> <BIOSOLVEIT.HYDE_ESTIMATED_AFFINITY_UPPER_BOUNDARY [nM]>
255242130.784525

> <BIOSOLVEIT.HYDE_LIGAND_EFFICIENCY range: ++, +, 0, -, -->
--

> <BIOSOLVEIT.HYDE_LIGAND_LIPOPHILIC_EFFICIENCY range: ++, +, 0, -, -->
--

> <BIOSOLVEIT.INTER_CLASH range: red, yellow, green>
green

> <BIOSOLVEIT.INTRA_CLASH range: red, yellow, green>
green

> <BIOSOLVEIT.LOGP>
0.6921

> <BIOSOLVEIT.MOLECULAR WEIGHT>
316.345

> <BIOSOLVEIT.MOLECULE_CHECKSUM>
LTkuMDg1MTI7MC40MTI5Ng==

> <BIOSOLVEIT.TORSION_QUALITY range: red, yellow, green, not rotatable>
yellow

> <BIOSOLVEIT.TPSA>
37.64

$$$$
Z1344352878.****
b8Hydescor01032215413D 1   1.00000     0.00000     0
Hydescorer 1.1.2 b8048283
 43 44  0  0  0  0            999 V2000
   16.3896  -36.9774  -15.1104 C   0  0  0  0  0  0  0  0  0  0  0  0
   16.6126  -35.8136  -15.8384 C   0  0  0  0  0  0  0  0  0  0  0  0
   17.6328  -34.9561  -15.4587 C   0  0  0  0  0  0  0  0  0  0  0  0
   18.3903  -35.2979  -14.3481 C   0  0  0  0  0  0  0  0  0  0  0  0
   18.1212  -36.4804  -13.6598 C   0  0  0  0  0  0  0  0  0  0  0  0
   17.1448  -37.3015  -14.0560 N   0  0  0  0  0  0  0  0  0  0  0  0
   18.9225  -36.8536  -12.4277 C   0  0  0  0  0  0  0  0  0  0  0  0
   18.1952  -36.3431  -11.1657 C   0  0  0  0  0  0  0  0  0  0  0  0
   17.1894  -37.3399  -10.5900 C   0  0  0  0  0  0  0  0  0  0  0  0
   16.0066  -36.9368  -10.0799 N   0  0  0  0  0  0  0  0  0  0  0  0
   17.4810  -38.5288  -10.5933 O   0  0  0  0  0  0  0  0  0  0  0  0
   14.8207  -36.7261  -10.9318 C   0  0  0  0  0  0  0  0  0  0  0  0
   14.9558  -35.2682  -11.4446 C   0  0  0  0  0  0  0  0  0  0  0  0
   14.9767  -34.3151  -10.2665 N   0  3  0  0  0  0  0  0  0  0  0  0
   16.1742  -34.6321   -9.3993 C   0  0  0  0  0  0  0  0  0  0  0  0
   16.0142  -36.0779   -8.8717 C   0  0  0  0  0  0  0  0  0  0  0  0
   15.0756  -32.8402  -10.7532 C   0  0  2  0  0  0  0  0  0  0  0  0
   16.0133  -32.6268  -12.0243 C   0  0  0  0  0  0  0  0  0  0  0  0
   15.5317  -31.9182   -9.5870 C   0  0  0  0  0  0  0  0  0  0  0  0
   16.4242  -31.3553  -12.0898 F   0  0  0  0  0  0  0  0  0  0  0  0
   17.0776  -33.4519  -11.9725 F   0  0  0  0  0  0  0  0  0  0  0  0
   15.2964  -32.9212  -13.1221 F   0  0  0  0  0  0  0  0  0  0  0  0
   15.6453  -37.5873  -15.3826 H   0  0  0  0  0  0  0  0  0  0  0  0
   16.0411  -35.5973  -16.6300 H   0  0  0  0  0  0  0  0  0  0  0  0
   17.8173  -34.1166  -15.9697 H   0  0  0  0  0  0  0  0  0  0  0  0
   19.1285  -34.6970  -14.0414 H   0  0  0  0  0  0  0  0  0  0  0  0
   19.8297  -36.4363  -12.4812 H   0  0  0  0  0  0  0  0  0  0  0  0
   19.0154  -37.8481  -12.3793 H   0  0  0  0  0  0  0  0  0  0  0  0
   17.7073  -35.5025  -11.4009 H   0  0  0  0  0  0  0  0  0  0  0  0
   18.8804  -36.1456  -10.4646 H   0  0  0  0  0  0  0  0  0  0  0  0
   13.9808  -36.8362  -10.4001 H   0  0  0  0  0  0  0  0  0  0  0  0
   14.8176  -37.3699  -11.6969 H   0  0  0  0  0  0  0  0  0  0  0  0
   14.1793  -35.0500  -12.0356 H   0  0  0  0  0  0  0  0  0  0  0  0
   15.8058  -35.1752  -11.9631 H   0  0  0  0  0  0  0  0  0  0  0  0
   16.2154  -33.9932   -8.6310 H   0  0  0  0  0  0  0  0  0  0  0  0
   17.0129  -34.5587   -9.9390 H   0  0  0  0  0  0  0  0  0  0  0  0
   16.7794  -36.3196   -8.2749 H   0  0  0  0  0  0  0  0  0  0  0  0
   15.1556  -36.1739   -8.3682 H   0  0  0  0  0  0  0  0  0  0  0  0
   14.1540  -32.5527  -11.0142 H   0  0  0  0  0  0  0  0  0  0  0  0
   15.5913  -30.9743   -9.9120 H   0  0  0  0  0  0  0  0  0  0  0  0
   14.8687  -31.9724   -8.8404 H   0  0  0  0  0  0  0  0  0  0  0  0
   16.4284  -32.2150   -9.2587 H   0  0  0  0  0  0  0  0  0  0  0  0
   14.1401  -34.4319   -9.7312 H   0  0  0  0  0  0  0  0  0  0  0  0
  1  2  2  0  0  0  0
  1  6  1  0  0  0  0
  1 23  1  0  0  0  0
  2  3  1  0  0  0  0
  2 24  1  0  0  0  0
  3  4  2  0  0  0  0
  3 25  1  0  0  0  0
  4  5  1  0  0  0  0
  4 26  1  0  0  0  0
  5  6  2  0  0  0  0
  5  7  1  0  0  0  0
  7  8  1  0  0  0  0
  7 27  1  0  0  0  0
  7 28  1  0  0  0  0
  8  9  1  0  0  0  0
  8 29  1  0  0  0  0
  8 30  1  0  0  0  0
  9 10  1  0  0  0  0
  9 11  2  0  0  0  0
 10 12  1  0  0  0  0
 10 16  1  0  0  0  0
 12 13  1  0  0  0  0
 12 31  1  0  0  0  0
 12 32  1  0  0  0  0
 13 14  1  0  0  0  0
 13 33  1  0  0  0  0
 13 34  1  0  0  0  0
 14 15  1  0  0  0  0
 14 17  1  0  0  0  0
 14 43  1  0  0  0  0
 15 16  1  0  0  0  0
 15 35  1  0  0  0  0
 15 36  1  0  0  0  0
 16 37  1  0  0  0  0
 16 38  1  0  0  0  0
 17 18  1  0  0  0  0
 17 19  1  0  0  0  0
 17 39  1  0  0  0  0
 18 20  1  0  0  0  0
 18 21  1  0  0  0  0
 18 22  1  0  0  0  0
 19 40  1  0  0  0  0
 19 41  1  0  0  0  0
 19 42  1  0  0  0  0
M  CHG  1  14   1
M  END
> <BIOSOLVEIT.HYDE_ESTIMATED_AFFINITY_LOWER_BOUNDARY [nM]>
2113487.545742

> <BIOSOLVEIT.HYDE_ESTIMATED_AFFINITY_UPPER_BOUNDARY [nM]>
209987483.596768

> <BIOSOLVEIT.HYDE_LIGAND_EFFICIENCY range: ++, +, 0, -, -->
--

> <BIOSOLVEIT.HYDE_LIGAND_LIPOPHILIC_EFFICIENCY range: ++, +, 0, -, -->
--

> <BIOSOLVEIT.INTER_CLASH range: red, yellow, green>
green

> <BIOSOLVEIT.INTRA_CLASH range: red, yellow, green>
green

> <BIOSOLVEIT.LOGP>
0.6921

> <BIOSOLVEIT.MOLECULAR WEIGHT>
316.345

> <BIOSOLVEIT.MOLECULE_CHECKSUM>
LTkuNTY4OTM7MC40MzQ5NTE=

> <BIOSOLVEIT.TORSION_QUALITY range: red, yellow, green, not rotatable>
red

> <BIOSOLVEIT.TPSA>
37.64

$$$$
Z200790202.****
b8Hydescor01032215413D 1   1.00000     0.00000     0
Hydescorer 1.1.2 b8048283
 39 41  0  0  0  0            999 V2000
   19.9447  -39.7925  -13.0783 C   0  0  0  0  0  0  0  0  0  0  0  0
   20.7948  -38.7215  -13.1849 C   0  0  0  0  0  0  0  0  0  0  0  0
   20.7073  -37.6659  -12.2622 N   0  0  0  0  0  0  0  0  0  0  0  0
   19.8318  -37.7094  -11.3147 C   0  0  0  0  0  0  0  0  0  0  0  0
   18.9603  -38.7859  -11.1805 N   0  0  0  0  0  0  0  0  0  0  0  0
   18.9750  -39.8486  -12.0348 C   0  0  0  0  0  0  0  0  0  0  0  0
   20.2265  -40.9678  -14.3196 S   0  0  0  0  0  0  0  0  0  0  0  0
   21.4998  -39.9966  -14.9722 C   0  0  0  0  0  0  0  0  0  0  0  0
   21.6833  -38.8392  -14.2648 C   0  0  0  0  0  0  0  0  0  0  0  0
   18.1482  -40.7197  -11.7982 O   0  0  0  0  0  0  0  0  0  0  0  0
   19.7150  -36.5704  -10.2827 C   0  0  0  0  0  0  0  0  0  0  0  0
   18.3850  -35.8635  -10.4977 N   0  3  0  0  0  0  0  0  0  0  0  0
   18.2218  -35.5901  -11.9734 C   0  0  0  0  0  0  0  0  0  0  0  0
   16.8705  -34.8254  -12.1929 C   0  0  0  0  0  0  0  0  0  0  0  0
   15.7252  -35.7007  -11.7290 N   0  3  0  0  0  0  0  0  0  0  0  0
   15.9053  -35.9917  -10.2462 C   0  0  0  0  0  0  0  0  0  0  0  0
   17.2623  -36.7462  -10.0237 C   0  0  0  0  0  0  0  0  0  0  0  0
   14.3914  -34.8899  -11.9331 C   0  0  0  0  0  0  0  0  0  0  0  0
   14.0533  -34.5563  -13.4295 C   0  0  0  0  0  0  0  0  0  0  0  0
   12.8246  -35.0100  -13.7063 F   0  0  0  0  0  0  0  0  0  0  0  0
   14.1195  -33.2453  -13.6216 F   0  0  0  0  0  0  0  0  0  0  0  0
   14.9426  -35.1906  -14.2040 F   0  0  0  0  0  0  0  0  0  0  0  0
   22.0400  -40.2513  -15.7743 H   0  0  0  0  0  0  0  0  0  0  0  0
   22.3744  -38.1531  -14.4924 H   0  0  0  0  0  0  0  0  0  0  0  0
   20.4663  -35.9224  -10.4082 H   0  0  0  0  0  0  0  0  0  0  0  0
   19.7514  -36.9478   -9.3574 H   0  0  0  0  0  0  0  0  0  0  0  0
   18.2056  -36.4542  -12.4765 H   0  0  0  0  0  0  0  0  0  0  0  0
   18.9832  -35.0292  -12.2985 H   0  0  0  0  0  0  0  0  0  0  0  0
   16.7589  -34.6145  -13.1640 H   0  0  0  0  0  0  0  0  0  0  0  0
   16.8772  -33.9755  -11.6659 H   0  0  0  0  0  0  0  0  0  0  0  0
   15.1498  -36.5622   -9.9241 H   0  0  0  0  0  0  0  0  0  0  0  0
   15.9144  -35.1315   -9.7362 H   0  0  0  0  0  0  0  0  0  0  0  0
   17.3801  -36.9483   -9.0515 H   0  0  0  0  0  0  0  0  0  0  0  0
   17.2624  -37.6003  -10.5441 H   0  0  0  0  0  0  0  0  0  0  0  0
   14.4700  -34.0285  -11.4314 H   0  0  0  0  0  0  0  0  0  0  0  0
   13.6380  -35.4281  -11.5554 H   0  0  0  0  0  0  0  0  0  0  0  0
   18.3745  -35.0015   -9.9909 H   0  0  0  0  0  0  0  0  0  0  0  0
   15.7010  -36.5524  -12.2526 H   0  0  0  0  0  0  0  0  0  0  0  0
   21.3228  -36.8815  -12.3393 H   0  0  0  0  0  0  0  0  0  0  0  0
  1  2  2  0  0  0  0
  1  6  1  0  0  0  0
  1  7  1  0  0  0  0
  2  3  1  0  0  0  0
  2  9  1  0  0  0  0
  3  4  1  0  0  0  0
  4  5  2  0  0  0  0
  4 11  1  0  0  0  0
  5  6  1  0  0  0  0
  3 39  1  0  0  0  0
  6 10  2  0  0  0  0
  7  8  1  0  0  0  0
  8  9  2  0  0  0  0
  8 23  1  0  0  0  0
  9 24  1  0  0  0  0
 11 12  1  0  0  0  0
 11 25  1  0  0  0  0
 11 26  1  0  0  0  0
 12 13  1  0  0  0  0
 12 17  1  0  0  0  0
 12 37  1  0  0  0  0
 13 14  1  0  0  0  0
 13 27  1  0  0  0  0
 13 28  1  0  0  0  0
 14 15  1  0  0  0  0
 14 29  1  0  0  0  0
 14 30  1  0  0  0  0
 15 16  1  0  0  0  0
 15 18  1  0  0  0  0
 15 38  1  0  0  0  0
 16 17  1  0  0  0  0
 16 31  1  0  0  0  0
 16 32  1  0  0  0  0
 17 33  1  0  0  0  0
 17 34  1  0  0  0  0
 18 19  1  0  0  0  0
 18 35  1  0  0  0  0
 18 36  1  0  0  0  0
 19 20  1  0  0  0  0
 19 21  1  0  0  0  0
 19 22  1  0  0  0  0
M  CHG  2  12   1  15   1
M  END
> <BIOSOLVEIT.HYDE_ESTIMATED_AFFINITY_LOWER_BOUNDARY [nM]>
686412099339.983643

> <BIOSOLVEIT.HYDE_ESTIMATED_AFFINITY_UPPER_BOUNDARY [nM]>
68199100458944.304688

> <BIOSOLVEIT.HYDE_LIGAND_EFFICIENCY range: ++, +, 0, -, -->
--

> <BIOSOLVEIT.HYDE_LIGAND_LIPOPHILIC_EFFICIENCY range: ++, +, 0, -, -->
--

> <BIOSOLVEIT.INTER_CLASH range: red, yellow, green>
green

> <BIOSOLVEIT.INTRA_CLASH range: red, yellow, green>
yellow

> <BIOSOLVEIT.LOGP>
-0.942

> <BIOSOLVEIT.MOLECULAR WEIGHT>
334.363

> <BIOSOLVEIT.MOLECULE_CHECKSUM>
MjEuODkxMzsw

> <BIOSOLVEIT.TORSION_QUALITY range: red, yellow, green, not rotatable>
green

> <BIOSOLVEIT.TPSA>
50.34

$$$$
Z200790202.****
b8Hydescor01032215413D 1   1.00000     0.00000     0
Hydescorer 1.1.2 b8048283
 38 40  0  0  0  0            999 V2000
   15.4512  -32.1645  -11.4988 C   0  0  0  0  0  0  0  0  0  0  0  0
   15.7141  -32.6988  -10.2633 C   0  0  0  0  0  0  0  0  0  0  0  0
   15.3457  -34.0251   -9.9833 N   0  0  0  0  0  0  0  0  0  0  0  0
   14.7665  -34.7380  -10.8902 C   0  0  0  0  0  0  0  0  0  0  0  0
   14.4925  -34.2226  -12.1534 N   0  0  0  0  0  0  0  0  0  0  0  0
   14.8122  -32.9449  -12.5061 C   0  0  0  0  0  0  0  0  0  0  0  0
   15.9846  -30.5205  -11.6192 S   0  0  0  0  0  0  0  0  0  0  0  0
   16.5640  -30.5725   -9.9907 C   0  0  0  0  0  0  0  0  0  0  0  0
   16.3508  -31.7905   -9.4035 C   0  0  0  0  0  0  0  0  0  0  0  0
   14.5067  -32.6270  -13.6482 O   0  0  0  0  0  0  0  0  0  0  0  0
   14.3561  -36.1982  -10.6164 C   0  0  0  0  0  0  0  0  0  0  0  0
   15.3275  -37.1139  -11.3463 N   0  3  0  0  0  0  0  0  0  0  0  0
   16.6953  -36.9500  -10.7288 C   0  0  0  0  0  0  0  0  0  0  0  0
   17.7065  -37.8624  -11.5058 C   0  0  0  0  0  0  0  0  0  0  0  0
   17.2777  -39.3079  -11.3657 N   0  0  0  0  0  0  0  0  0  0  0  0
   15.8898  -39.4643  -11.9699 C   0  0  0  0  0  0  0  0  0  0  0  0
   14.8795  -38.5430  -11.2011 C   0  0  0  0  0  0  0  0  0  0  0  0
   18.2941  -40.1889  -12.1836 C   0  0  0  0  0  0  0  0  0  0  0  0
   18.4263  -39.7963  -13.6979 C   0  0  0  0  0  0  0  0  0  0  0  0
   17.2186  -39.8715  -14.2708 F   0  0  0  0  0  0  0  0  0  0  0  0
   18.9144  -38.5670  -13.8004 F   0  0  0  0  0  0  0  0  0  0  0  0
   19.2470  -40.6784  -14.2820 F   0  0  0  0  0  0  0  0  0  0  0  0
   14.0448  -34.8107  -12.8270 H   0  0  0  0  0  0  0  0  0  0  0  0
   17.0042  -29.8014   -9.5308 H   0  0  0  0  0  0  0  0  0  0  0  0
   16.6191  -32.0090   -8.4653 H   0  0  0  0  0  0  0  0  0  0  0  0
   13.4270  -36.3564  -10.9503 H   0  0  0  0  0  0  0  0  0  0  0  0
   14.3929  -36.3810   -9.6339 H   0  0  0  0  0  0  0  0  0  0  0  0
   16.6658  -37.2225   -9.7671 H   0  0  0  0  0  0  0  0  0  0  0  0
   16.9832  -35.9947  -10.7959 H   0  0  0  0  0  0  0  0  0  0  0  0
   18.6235  -37.7466  -11.1241 H   0  0  0  0  0  0  0  0  0  0  0  0
   17.7132  -37.6072  -12.4726 H   0  0  0  0  0  0  0  0  0  0  0  0
   15.5977  -40.4175  -11.8922 H   0  0  0  0  0  0  0  0  0  0  0  0
   15.9142  -39.2007  -12.9343 H   0  0  0  0  0  0  0  0  0  0  0  0
   13.9638  -38.6501  -11.5886 H   0  0  0  0  0  0  0  0  0  0  0  0
   14.8634  -38.7945  -10.2334 H   0  0  0  0  0  0  0  0  0  0  0  0
   17.9927  -41.1411  -12.1331 H   0  0  0  0  0  0  0  0  0  0  0  0
   19.1952  -40.1015  -11.7586 H   0  0  0  0  0  0  0  0  0  0  0  0
   15.3620  -36.8671  -12.3147 H   0  0  0  0  0  0  0  0  0  0  0  0
  1  2  2  0  0  0  0
  1  6  1  0  0  0  0
  1  7  1  0  0  0  0
  2  3  1  0  0  0  0
  2  9  1  0  0  0  0
  3  4  2  0  0  0  0
  4  5  1  0  0  0  0
  4 11  1  0  0  0  0
  5  6  1  0  0  0  0
  5 23  1  0  0  0  0
  6 10  2  0  0  0  0
  7  8  1  0  0  0  0
  8  9  2  0  0  0  0
  8 24  1  0  0  0  0
  9 25  1  0  0  0  0
 11 12  1  0  0  0  0
 11 26  1  0  0  0  0
 11 27  1  0  0  0  0
 12 13  1  0  0  0  0
 12 17  1  0  0  0  0
 12 38  1  0  0  0  0
 13 14  1  0  0  0  0
 13 28  1  0  0  0  0
 13 29  1  0  0  0  0
 14 15  1  0  0  0  0
 14 30  1  0  0  0  0
 14 31  1  0  0  0  0
 15 16  1  0  0  0  0
 15 18  1  0  0  0  0
 19 22  1  0  0  0  0
 16 17  1  0  0  0  0
 16 32  1  0  0  0  0
 16 33  1  0  0  0  0
 17 34  1  0  0  0  0
 17 35  1  0  0  0  0
 18 19  1  0  0  0  0
 18 36  1  0  0  0  0
 18 37  1  0  0  0  0
 19 20  1  0  0  0  0
 19 21  1  0  0  0  0
M  CHG  1  12   1
M  END
> <BIOSOLVEIT.HYDE_ESTIMATED_AFFINITY_LOWER_BOUNDARY [nM]>
2532504517.632445

> <BIOSOLVEIT.HYDE_ESTIMATED_AFFINITY_UPPER_BOUNDARY [nM]>
251619297178.500214

> <BIOSOLVEIT.HYDE_LIGAND_EFFICIENCY range: ++, +, 0, -, -->
--

> <BIOSOLVEIT.HYDE_LIGAND_LIPOPHILIC_EFFICIENCY range: ++, +, 0, -, -->
--

> <BIOSOLVEIT.INTER_CLASH range: red, yellow, green>
green

> <BIOSOLVEIT.INTRA_CLASH range: red, yellow, green>
red

> <BIOSOLVEIT.LOGP>
0.2474

> <BIOSOLVEIT.MOLECULAR WEIGHT>
333.355

> <BIOSOLVEIT.MOLECULE_CHECKSUM>
OC4wMDM0Nzsw

> <BIOSOLVEIT.TORSION_QUALITY range: red, yellow, green, not rotatable>
green

> <BIOSOLVEIT.TPSA>
53.43

$$$$
Z200790202.****
b8Hydescor01032215413D 1   1.00000     0.00000     0
Hydescorer 1.1.2 b8048283
 39 41  0  0  0  0            999 V2000
   19.4470  -39.5837  -16.6970 C   0  0  0  0  0  0  0  0  0  0  0  0
   19.0441  -38.2786  -16.8211 C   0  0  0  0  0  0  0  0  0  0  0  0
   17.7094  -37.9314  -16.5541 N   0  0  0  0  0  0  0  0  0  0  0  0
   16.8684  -38.8396  -16.1878 C   0  0  0  0  0  0  0  0  0  0  0  0
   17.2515  -40.1702  -16.0495 N   0  0  0  0  0  0  0  0  0  0  0  0
   18.5248  -40.5928  -16.2930 C   0  0  0  0  0  0  0  0  0  0  0  0
   21.1253  -39.7815  -17.0794 S   0  0  0  0  0  0  0  0  0  0  0  0
   21.2677  -38.0885  -17.4015 C   0  0  0  0  0  0  0  0  0  0  0  0
   20.0839  -37.4253  -17.2215 C   0  0  0  0  0  0  0  0  0  0  0  0
   18.7155  -41.7917  -16.1353 O   0  0  0  0  0  0  0  0  0  0  0  0
   15.3989  -38.4897  -15.8810 C   0  0  0  0  0  0  0  0  0  0  0  0
   15.2987  -38.0820  -14.4187 N   0  3  0  0  0  0  0  0  0  0  0  0
   15.7003  -36.6318  -14.2978 C   0  0  0  0  0  0  0  0  0  0  0  0
   15.6369  -36.2205  -12.7859 C   0  0  0  0  0  0  0  0  0  0  0  0
   14.2147  -36.3762  -12.2897 N   0  3  0  0  0  0  0  0  0  0  0  0
   13.8066  -37.8352  -12.4333 C   0  0  0  0  0  0  0  0  0  0  0  0
   13.8809  -38.2513  -13.9439 C   0  0  0  0  0  0  0  0  0  0  0  0
   14.1960  -35.9875  -10.7643 C   0  0  0  0  0  0  0  0  0  0  0  0
   15.3870  -36.5746   -9.9268 C   0  0  0  0  0  0  0  0  0  0  0  0
   16.5159  -35.9502  -10.2844 F   0  0  0  0  0  0  0  0  0  0  0  0
   15.1507  -36.4042   -8.6326 F   0  0  0  0  0  0  0  0  0  0  0  0
   15.4925  -37.8774  -10.2180 F   0  0  0  0  0  0  0  0  0  0  0  0
   16.5681  -40.8409  -15.7609 H   0  0  0  0  0  0  0  0  0  0  0  0
   22.1173  -37.6448  -17.6865 H   0  0  0  0  0  0  0  0  0  0  0  0
   19.9722  -36.4413  -17.3601 H   0  0  0  0  0  0  0  0  0  0  0  0
   14.8194  -39.2870  -16.0501 H   0  0  0  0  0  0  0  0  0  0  0  0
   15.1029  -37.7330  -16.4639 H   0  0  0  0  0  0  0  0  0  0  0  0
   15.0721  -36.0627  -14.8285 H   0  0  0  0  0  0  0  0  0  0  0  0
   16.6314  -36.5101  -14.6414 H   0  0  0  0  0  0  0  0  0  0  0  0
   15.9243  -35.2679  -12.6856 H   0  0  0  0  0  0  0  0  0  0  0  0
   16.2441  -36.8097  -12.2528 H   0  0  0  0  0  0  0  0  0  0  0  0
   12.8712  -37.9541  -12.1002 H   0  0  0  0  0  0  0  0  0  0  0  0
   14.4264  -38.4092  -11.8982 H   0  0  0  0  0  0  0  0  0  0  0  0
   13.6039  -39.2069  -14.0442 H   0  0  0  0  0  0  0  0  0  0  0  0
   13.2729  -37.6696  -14.4841 H   0  0  0  0  0  0  0  0  0  0  0  0
   13.3410  -36.3215  -10.3676 H   0  0  0  0  0  0  0  0  0  0  0  0
   14.2281  -34.9903  -10.6959 H   0  0  0  0  0  0  0  0  0  0  0  0
   15.9100  -38.6493  -13.8669 H   0  0  0  0  0  0  0  0  0  0  0  0
   13.5961  -35.7867  -12.8090 H   0  0  0  0  0  0  0  0  0  0  0  0
  1  2  2  0  0  0  0
  1  6  1  0  0  0  0
  1  7  1  0  0  0  0
  2  3  1  0  0  0  0
  2  9  1  0  0  0  0
  3  4  2  0  0  0  0
  4  5  1  0  0  0  0
  4 11  1  0  0  0  0
  5  6  1  0  0  0  0
  5 23  1  0  0  0  0
  6 10  2  0  0  0  0
  7  8  1  0  0  0  0
  8  9  2  0  0  0  0
  8 24  1  0  0  0  0
  9 25  1  0  0  0  0
 11 12  1  0  0  0  0
 11 26  1  0  0  0  0
 11 27  1  0  0  0  0
 12 13  1  0  0  0  0
 12 17  1  0  0  0  0
 12 38  1  0  0  0  0
 13 14  1  0  0  0  0
 13 28  1  0  0  0  0
 13 29  1  0  0  0  0
 14 15  1  0  0  0  0
 14 30  1  0  0  0  0
 14 31  1  0  0  0  0
 15 16  1  0  0  0  0
 15 18  1  0  0  0  0
 15 39  1  0  0  0  0
 16 17  1  0  0  0  0
 16 32  1  0  0  0  0
 16 33  1  0  0  0  0
 17 34  1  0  0  0  0
 17 35  1  0  0  0  0
 18 19  1  0  0  0  0
 18 36  1  0  0  0  0
 18 37  1  0  0  0  0
 19 20  1  0  0  0  0
 19 21  1  0  0  0  0
 19 22  1  0  0  0  0
M  CHG  2  12   1  15   1
M  END
> <BIOSOLVEIT.HYDE_ESTIMATED_AFFINITY_LOWER_BOUNDARY [nM]>
243051943.074365

> <BIOSOLVEIT.HYDE_ESTIMATED_AFFINITY_UPPER_BOUNDARY [nM]>
24148647581.254360

> <BIOSOLVEIT.HYDE_LIGAND_EFFICIENCY range: ++, +, 0, -, -->
--

> <BIOSOLVEIT.HYDE_LIGAND_LIPOPHILIC_EFFICIENCY range: ++, +, 0, -, -->
--

> <BIOSOLVEIT.INTER_CLASH range: red, yellow, green>
green

> <BIOSOLVEIT.INTRA_CLASH range: red, yellow, green>
red

> <BIOSOLVEIT.LOGP>
-1.1697

> <BIOSOLVEIT.MOLECULAR WEIGHT>
334.363

> <BIOSOLVEIT.MOLECULE_CHECKSUM>
Mi4xOTM1Njsw

> <BIOSOLVEIT.TORSION_QUALITY range: red, yellow, green, not rotatable>
green

> <BIOSOLVEIT.TPSA>
54.63

$$$$
Z200790202.****
b8Hydescor01032215413D 1   1.00000     0.00000     0
Hydescorer 1.1.2 b8048283
 39 41  0  0  0  0            999 V2000
   16.0803  -39.9112  -13.0289 C   0  0  0  0  0  0  0  0  0  0  0  0
   15.4433  -39.4661  -11.8987 C   0  0  0  0  0  0  0  0  0  0  0  0
   16.0043  -38.4204  -11.1471 N   0  0  0  0  0  0  0  0  0  0  0  0
   17.1133  -37.8784  -11.5247 C   0  0  0  0  0  0  0  0  0  0  0  0
   17.7778  -38.3073  -12.6697 N   0  0  0  0  0  0  0  0  0  0  0  0
   17.3051  -39.3183  -13.4531 C   0  0  0  0  0  0  0  0  0  0  0  0
   15.2158  -41.2050  -13.7912 S   0  0  0  0  0  0  0  0  0  0  0  0
   13.9936  -41.1289  -12.5701 C   0  0  0  0  0  0  0  0  0  0  0  0
   14.2516  -40.1601  -11.6383 C   0  0  0  0  0  0  0  0  0  0  0  0
   17.9970  -39.5919  -14.4253 O   0  0  0  0  0  0  0  0  0  0  0  0
   17.7509  -36.7249  -10.7256 C   0  0  0  0  0  0  0  0  0  0  0  0
   16.8558  -35.5013  -10.8537 N   0  3  0  0  0  0  0  0  0  0  0  0
   17.2446  -34.5102   -9.7834 C   0  0  0  0  0  0  0  0  0  0  0  0
   16.2968  -33.2654   -9.8875 C   0  0  0  0  0  0  0  0  0  0  0  0
   16.4792  -32.6162  -11.2433 N   0  3  0  0  0  0  0  0  0  0  0  0
   16.1069  -33.6253  -12.3198 C   0  0  0  0  0  0  0  0  0  0  0  0
   17.0467  -34.8764  -12.2092 C   0  0  0  0  0  0  0  0  0  0  0  0
   15.4907  -31.3936  -11.3243 C   0  0  0  0  0  0  0  0  0  0  0  0
   16.1133  -30.0212  -10.8839 C   0  0  0  0  0  0  0  0  0  0  0  0
   15.1445  -29.0979  -10.8511 F   0  0  0  0  0  0  0  0  0  0  0  0
   16.6761  -30.1480   -9.6894 F   0  0  0  0  0  0  0  0  0  0  0  0
   17.0258  -29.6704  -11.7990 F   0  0  0  0  0  0  0  0  0  0  0  0
   13.1905  -41.7242  -12.5475 H   0  0  0  0  0  0  0  0  0  0  0  0
   13.6565  -39.9680  -10.8579 H   0  0  0  0  0  0  0  0  0  0  0  0
   18.6580  -36.5201  -11.0933 H   0  0  0  0  0  0  0  0  0  0  0  0
   17.8320  -36.9849   -9.7634 H   0  0  0  0  0  0  0  0  0  0  0  0
   18.1932  -34.2237   -9.9178 H   0  0  0  0  0  0  0  0  0  0  0  0
   17.1486  -34.9325   -8.8820 H   0  0  0  0  0  0  0  0  0  0  0  0
   16.5255  -32.6091   -9.1685 H   0  0  0  0  0  0  0  0  0  0  0  0
   15.3465  -33.5582   -9.7815 H   0  0  0  0  0  0  0  0  0  0  0  0
   16.2143  -33.2062  -13.2213 H   0  0  0  0  0  0  0  0  0  0  0  0
   15.1564  -33.9101  -12.1957 H   0  0  0  0  0  0  0  0  0  0  0  0
   16.8121  -35.5381  -12.9213 H   0  0  0  0  0  0  0  0  0  0  0  0
   17.9994  -34.5929  -12.3184 H   0  0  0  0  0  0  0  0  0  0  0  0
   14.7078  -31.5854  -10.7324 H   0  0  0  0  0  0  0  0  0  0  0  0
   15.1796  -31.3059  -12.2705 H   0  0  0  0  0  0  0  0  0  0  0  0
   15.8993  -35.7681  -10.7360 H   0  0  0  0  0  0  0  0  0  0  0  0
   17.4242  -32.3110  -11.3611 H   0  0  0  0  0  0  0  0  0  0  0  0
   15.5449  -38.0960  -10.3201 H   0  0  0  0  0  0  0  0  0  0  0  0
  1  2  2  0  0  0  0
  1  6  1  0  0  0  0
  1  7  1  0  0  0  0
  2  3  1  0  0  0  0
  2  9  1  0  0  0  0
  3  4  1  0  0  0  0
  4  5  2  0  0  0  0
  4 11  1  0  0  0  0
  5  6  1  0  0  0  0
  3 39  1  0  0  0  0
  6 10  2  0  0  0  0
  7  8  1  0  0  0  0
  8  9  2  0  0  0  0
  8 23  1  0  0  0  0
  9 24  1  0  0  0  0
 11 12  1  0  0  0  0
 11 25  1  0  0  0  0
 11 26  1  0  0  0  0
 12 13  1  0  0  0  0
 12 17  1  0  0  0  0
 12 37  1  0  0  0  0
 13 14  1  0  0  0  0
 13 27  1  0  0  0  0
 13 28  1  0  0  0  0
 14 15  1  0  0  0  0
 14 29  1  0  0  0  0
 14 30  1  0  0  0  0
 15 16  1  0  0  0  0
 15 18  1  0  0  0  0
 15 38  1  0  0  0  0
 16 17  1  0  0  0  0
 16 31  1  0  0  0  0
 16 32  1  0  0  0  0
 17 33  1  0  0  0  0
 17 34  1  0  0  0  0
 18 19  1  0  0  0  0
 18 35  1  0  0  0  0
 18 36  1  0  0  0  0
 19 20  1  0  0  0  0
 19 21  1  0  0  0  0
 19 22  1  0  0  0  0
M  CHG  2  12   1  15   1
M  END
> <BIOSOLVEIT.HYDE_ESTIMATED_AFFINITY_LOWER_BOUNDARY [nM]>
1852808.209549

> <BIOSOLVEIT.HYDE_ESTIMATED_AFFINITY_UPPER_BOUNDARY [nM]>
184087450.287800

> <BIOSOLVEIT.HYDE_LIGAND_EFFICIENCY range: ++, +, 0, -, -->
--

> <BIOSOLVEIT.HYDE_LIGAND_LIPOPHILIC_EFFICIENCY range: ++, +, 0, -, -->
-

> <BIOSOLVEIT.INTER_CLASH range: red, yellow, green>
green

> <BIOSOLVEIT.INTRA_CLASH range: red, yellow, green>
green

> <BIOSOLVEIT.LOGP>
-0.942

> <BIOSOLVEIT.MOLECULAR WEIGHT>
334.363

> <BIOSOLVEIT.MOLECULE_CHECKSUM>
LTkuODk1MjU7MC40NDk3ODQ=

> <BIOSOLVEIT.TORSION_QUALITY range: red, yellow, green, not rotatable>
green

> <BIOSOLVEIT.TPSA>
50.34

$$$$
PV-001794469965.****
b8Hydescor01032215413D 1   1.00000     0.00000     0
Hydescorer 1.1.2 b8048283
 40 42  0  0  0  0            999 V2000
   15.6234  -32.7318  -10.4748 C   0  0  0  0  0  0  0  0  0  0  0  0
   15.0415  -33.9931  -10.3269 C   0  0  0  0  0  0  0  0  0  0  0  0
   14.3718  -34.5959  -11.3927 C   0  0  0  0  0  0  0  0  0  0  0  0
   14.2992  -33.9002  -12.5986 C   0  0  0  0  0  0  0  0  0  0  0  0
   14.8732  -32.6490  -12.7706 C   0  0  0  0  0  0  0  0  0  0  0  0
   15.5419  -32.0645  -11.6996 C   0  0  0  0  0  0  0  0  0  0  0  0
   16.3553  -32.0909   -9.3154 C   0  0  0  0  0  0  0  0  0  0  0  0
   13.6551  -34.4549  -13.6542 F   0  0  0  0  0  0  0  0  0  0  0  0
   13.7653  -35.9860  -11.2441 C   0  0  0  0  0  0  0  0  0  0  0  0
   14.7287  -36.9885  -11.8520 C   0  0  0  0  0  0  0  0  0  0  0  0
   15.8794  -36.6962  -12.1089 O   0  0  0  0  0  0  0  0  0  0  0  0
   14.2471  -38.2402  -12.1552 N   0  0  0  0  0  0  0  0  0  0  0  0
   14.9775  -39.3061  -12.7220 C   0  0  0  0  0  0  0  0  0  0  0  0
   15.9139  -40.0119  -11.9686 C   0  0  0  0  0  0  0  0  0  0  0  0
   16.6318  -41.0298  -12.5925 C   0  0  0  0  0  0  0  0  0  0  0  0
   16.3980  -41.3848  -13.9240 C   0  0  0  0  0  0  0  0  0  0  0  0
   15.4349  -40.6864  -14.6499 C   0  0  0  0  0  0  0  0  0  0  0  0
   14.7243  -39.6455  -14.0534 C   0  0  0  0  0  0  0  0  0  0  0  0
   17.6475  -41.7280  -11.8488 N   0  0  0  0  0  0  0  0  0  0  0  0
   18.9714  -41.5806  -11.9486 C   0  0  0  0  0  0  0  0  0  0  0  0
   19.5345  -42.3889  -11.1297 N   0  0  0  0  0  0  0  0  0  0  0  0
   18.5277  -43.0622  -10.5085 N   0  0  0  0  0  0  0  0  0  0  0  0
   17.3732  -42.6604  -10.9502 N   0  0  0  0  0  0  0  0  0  0  0  0
   19.6555  -40.6069  -12.8901 C   0  0  0  0  0  0  0  0  0  0  0  0
   15.1055  -34.4685   -9.4495 H   0  0  0  0  0  0  0  0  0  0  0  0
   14.8075  -32.1755  -13.6490 H   0  0  0  0  0  0  0  0  0  0  0  0
   15.9651  -31.1648  -11.8066 H   0  0  0  0  0  0  0  0  0  0  0  0
   16.7057  -31.1972   -9.5955 H   0  0  0  0  0  0  0  0  0  0  0  0
   15.7262  -31.9763   -8.5465 H   0  0  0  0  0  0  0  0  0  0  0  0
   17.1175  -32.6758   -9.0380 H   0  0  0  0  0  0  0  0  0  0  0  0
   12.8880  -36.0259  -11.7226 H   0  0  0  0  0  0  0  0  0  0  0  0
   13.6266  -36.1934  -10.2757 H   0  0  0  0  0  0  0  0  0  0  0  0
   13.2828  -38.4123  -11.9538 H   0  0  0  0  0  0  0  0  0  0  0  0
   16.0666  -39.7931  -11.0049 H   0  0  0  0  0  0  0  0  0  0  0  0
   16.9140  -42.1285  -14.3493 H   0  0  0  0  0  0  0  0  0  0  0  0
   15.2528  -40.9327  -15.6019 H   0  0  0  0  0  0  0  0  0  0  0  0
   14.0357  -39.1436  -14.5768 H   0  0  0  0  0  0  0  0  0  0  0  0
   20.6471  -40.6802  -12.7827 H   0  0  0  0  0  0  0  0  0  0  0  0
   19.4055  -40.8242  -13.8336 H   0  0  0  0  0  0  0  0  0  0  0  0
   19.3649  -39.6747  -12.6744 H   0  0  0  0  0  0  0  0  0  0  0  0
  1  2  2  0  0  0  0
  1  6  1  0  0  0  0
  1  7  1  0  0  0  0
  2  3  1  0  0  0  0
  2 25  1  0  0  0  0
  3  4  2  0  0  0  0
  3  9  1  0  0  0  0
  4  5  1  0  0  0  0
  4  8  1  0  0  0  0
  5  6  2  0  0  0  0
  5 26  1  0  0  0  0
  6 27  1  0  0  0  0
  7 28  1  0  0  0  0
  7 29  1  0  0  0  0
  7 30  1  0  0  0  0
  9 10  1  0  0  0  0
  9 31  1  0  0  0  0
  9 32  1  0  0  0  0
 10 11  2  0  0  0  0
 10 12  1  0  0  0  0
 12 13  1  0  0  0  0
 12 33  1  0  0  0  0
 13 14  2  0  0  0  0
 13 18  1  0  0  0  0
 14 15  1  0  0  0  0
 14 34  1  0  0  0  0
 15 16  2  0  0  0  0
 15 19  1  0  0  0  0
 16 17  1  0  0  0  0
 16 35  1  0  0  0  0
 17 18  2  0  0  0  0
 17 36  1  0  0  0  0
 18 37  1  0  0  0  0
 19 20  1  0  0  0  0
 19 23  1  0  0  0  0
 20 21  2  0  0  0  0
 20 24  1  0  0  0  0
 21 22  1  0  0  0  0
 22 23  2  0  0  0  0
 24 38  1  0  0  0  0
 24 39  1  0  0  0  0
 24 40  1  0  0  0  0
M  END
> <BIOSOLVEIT.HYDE_ESTIMATED_AFFINITY_LOWER_BOUNDARY [nM]>
37478220.694991

> <BIOSOLVEIT.HYDE_ESTIMATED_AFFINITY_UPPER_BOUNDARY [nM]>
3723682814.824920

> <BIOSOLVEIT.HYDE_LIGAND_EFFICIENCY range: ++, +, 0, -, -->
--

> <BIOSOLVEIT.HYDE_LIGAND_LIPOPHILIC_EFFICIENCY range: ++, +, 0, -, -->
--

> <BIOSOLVEIT.INTER_CLASH range: red, yellow, green>
green

> <BIOSOLVEIT.INTRA_CLASH range: red, yellow, green>
green

> <BIOSOLVEIT.LOGP>
2.59944

> <BIOSOLVEIT.MOLECULAR WEIGHT>
325.345

> <BIOSOLVEIT.MOLECULE_CHECKSUM>
LTIuNDQwODg7MC4xMDE3MDM=

> <BIOSOLVEIT.TORSION_QUALITY range: red, yellow, green, not rotatable>
red

> <BIOSOLVEIT.TPSA>
72.7

$$$$
PV-001794469965.****
b8Hydescor01032215413D 1   1.00000     0.00000     0
Hydescorer 1.1.2 b8048283
 40 42  0  0  0  0            999 V2000
   15.7696  -32.5888  -10.4878 C   0  0  0  0  0  0  0  0  0  0  0  0
   15.0500  -33.7551  -10.2176 C   0  0  0  0  0  0  0  0  0  0  0  0
   14.3292  -34.3951  -11.2269 C   0  0  0  0  0  0  0  0  0  0  0  0
   14.3473  -33.8327  -12.5024 C   0  0  0  0  0  0  0  0  0  0  0  0
   15.0581  -32.6782  -12.7957 C   0  0  0  0  0  0  0  0  0  0  0  0
   15.7758  -32.0555  -11.7792 C   0  0  0  0  0  0  0  0  0  0  0  0
   16.5554  -31.9075   -9.3882 C   0  0  0  0  0  0  0  0  0  0  0  0
   13.6571  -34.4268  -13.5061 F   0  0  0  0  0  0  0  0  0  0  0  0
   13.5709  -35.6860  -10.9425 C   0  0  0  0  0  0  0  0  0  0  0  0
   14.3715  -36.8398  -11.5174 C   0  0  0  0  0  0  0  0  0  0  0  0
   15.4177  -36.6617  -12.1083 O   0  0  0  0  0  0  0  0  0  0  0  0
   13.8517  -38.1068  -11.3942 N   0  0  0  0  0  0  0  0  0  0  0  0
   14.4378  -39.3033  -11.8585 C   0  0  0  0  0  0  0  0  0  0  0  0
   15.7946  -39.5573  -11.6652 C   0  0  0  0  0  0  0  0  0  0  0  0
   16.3253  -40.7386  -12.1786 C   0  0  0  0  0  0  0  0  0  0  0  0
   15.5253  -41.6825  -12.8289 C   0  0  0  0  0  0  0  0  0  0  0  0
   14.1648  -41.4225  -12.9840 C   0  0  0  0  0  0  0  0  0  0  0  0
   13.6180  -40.2336  -12.5022 C   0  0  0  0  0  0  0  0  0  0  0  0
   17.7364  -40.9892  -12.0441 N   0  0  0  0  0  0  0  0  0  0  0  0
   18.7404  -40.2630  -12.5433 C   0  0  0  0  0  0  0  0  0  0  0  0
   19.8474  -40.8194  -12.2174 N   0  0  0  0  0  0  0  0  0  0  0  0
   19.5178  -41.9282  -11.4999 N   0  0  0  0  0  0  0  0  0  0  0  0
   18.2265  -42.0343  -11.3962 N   0  0  0  0  0  0  0  0  0  0  0  0
   18.5576  -38.9959  -13.3578 C   0  0  0  0  0  0  0  0  0  0  0  0
   15.0514  -34.1350   -9.2926 H   0  0  0  0  0  0  0  0  0  0  0  0
   15.0547  -32.3000  -13.7214 H   0  0  0  0  0  0  0  0  0  0  0  0
   16.2971  -31.2246  -11.9734 H   0  0  0  0  0  0  0  0  0  0  0  0
   17.0056  -31.0935   -9.7554 H   0  0  0  0  0  0  0  0  0  0  0  0
   15.9346  -31.6410   -8.6510 H   0  0  0  0  0  0  0  0  0  0  0  0
   17.2451  -32.5377   -9.0318 H   0  0  0  0  0  0  0  0  0  0  0  0
   12.6692  -35.6513  -11.3734 H   0  0  0  0  0  0  0  0  0  0  0  0
   13.4643  -35.8059   -9.9555 H   0  0  0  0  0  0  0  0  0  0  0  0
   12.9702  -38.1884  -10.9290 H   0  0  0  0  0  0  0  0  0  0  0  0
   16.3724  -38.9080  -11.1706 H   0  0  0  0  0  0  0  0  0  0  0  0
   15.9230  -42.5312  -13.1776 H   0  0  0  0  0  0  0  0  0  0  0  0
   13.5789  -42.0908  -13.4423 H   0  0  0  0  0  0  0  0  0  0  0  0
   12.6421  -40.0476  -12.6169 H   0  0  0  0  0  0  0  0  0  0  0  0
   19.4531  -38.6346  -13.6177 H   0  0  0  0  0  0  0  0  0  0  0  0
   18.0297  -39.2024  -14.1816 H   0  0  0  0  0  0  0  0  0  0  0  0
   18.0696  -38.3156  -12.8110 H   0  0  0  0  0  0  0  0  0  0  0  0
  1  2  2  0  0  0  0
  1  6  1  0  0  0  0
  1  7  1  0  0  0  0
  2  3  1  0  0  0  0
  2 25  1  0  0  0  0
  3  4  2  0  0  0  0
  3  9  1  0  0  0  0
  4  5  1  0  0  0  0
  4  8  1  0  0  0  0
  5  6  2  0  0  0  0
  5 26  1  0  0  0  0
  6 27  1  0  0  0  0
  7 28  1  0  0  0  0
  7 29  1  0  0  0  0
  7 30  1  0  0  0  0
  9 10  1  0  0  0  0
  9 31  1  0  0  0  0
  9 32  1  0  0  0  0
 10 11  2  0  0  0  0
 10 12  1  0  0  0  0
 12 13  1  0  0  0  0
 12 33  1  0  0  0  0
 13 14  2  0  0  0  0
 13 18  1  0  0  0  0
 14 15  1  0  0  0  0
 14 34  1  0  0  0  0
 15 16  2  0  0  0  0
 15 19  1  0  0  0  0
 16 17  1  0  0  0  0
 16 35  1  0  0  0  0
 17 18  2  0  0  0  0
 17 36  1  0  0  0  0
 18 37  1  0  0  0  0
 19 20  1  0  0  0  0
 19 23  1  0  0  0  0
 20 21  2  0  0  0  0
 20 24  1  0  0  0  0
 21 22  1  0  0  0  0
 22 23  2  0  0  0  0
 24 38  1  0  0  0  0
 24 39  1  0  0  0  0
 24 40  1  0  0  0  0
M  END
> <BIOSOLVEIT.HYDE_ESTIMATED_AFFINITY_LOWER_BOUNDARY [nM]>
1900099.604375

> <BIOSOLVEIT.HYDE_ESTIMATED_AFFINITY_UPPER_BOUNDARY [nM]>
188786129.972645

> <BIOSOLVEIT.HYDE_LIGAND_EFFICIENCY range: ++, +, 0, -, -->
--

> <BIOSOLVEIT.HYDE_LIGAND_LIPOPHILIC_EFFICIENCY range: ++, +, 0, -, -->
--

> <BIOSOLVEIT.INTER_CLASH range: red, yellow, green>
green

> <BIOSOLVEIT.INTRA_CLASH range: red, yellow, green>
green

> <BIOSOLVEIT.LOGP>
2.59944

> <BIOSOLVEIT.MOLECULAR WEIGHT>
325.345

> <BIOSOLVEIT.MOLECULE_CHECKSUM>
LTkuODMyNzc7MC40MDk2OTk=

> <BIOSOLVEIT.TORSION_QUALITY range: red, yellow, green, not rotatable>
green

> <BIOSOLVEIT.TPSA>
72.7

$$$$
PV-001794469965.****
b8Hydescor01032215413D 1   1.00000     0.00000     0
Hydescorer 1.1.2 b8048283
 40 42  0  0  0  0            999 V2000
   16.4744  -31.0631  -10.4911 C   0  0  0  0  0  0  0  0  0  0  0  0
   16.0257  -31.4823  -11.7458 C   0  0  0  0  0  0  0  0  0  0  0  0
   15.2791  -32.6540  -11.8783 C   0  0  0  0  0  0  0  0  0  0  0  0
   15.0029  -33.3887  -10.7262 C   0  0  0  0  0  0  0  0  0  0  0  0
   15.4338  -32.9901   -9.4693 C   0  0  0  0  0  0  0  0  0  0  0  0
   16.1725  -31.8167   -9.3540 C   0  0  0  0  0  0  0  0  0  0  0  0
   17.2758  -29.7862  -10.3573 C   0  0  0  0  0  0  0  0  0  0  0  0
   14.2818  -34.5325  -10.8180 F   0  0  0  0  0  0  0  0  0  0  0  0
   14.7598  -33.0956  -13.2412 C   0  0  0  0  0  0  0  0  0  0  0  0
   15.5150  -34.3462  -13.6513 C   0  0  0  0  0  0  0  0  0  0  0  0
   14.9385  -35.3656  -13.9737 O   0  0  0  0  0  0  0  0  0  0  0  0
   16.8887  -34.3127  -13.6014 N   0  0  0  0  0  0  0  0  0  0  0  0
   17.7669  -35.3641  -13.9394 C   0  0  0  0  0  0  0  0  0  0  0  0
   17.9780  -36.4288  -13.0650 C   0  0  0  0  0  0  0  0  0  0  0  0
   18.8848  -37.4189  -13.4366 C   0  0  0  0  0  0  0  0  0  0  0  0
   19.5380  -37.3916  -14.6720 C   0  0  0  0  0  0  0  0  0  0  0  0
   19.2884  -36.3337  -15.5445 C   0  0  0  0  0  0  0  0  0  0  0  0
   18.4055  -35.3174  -15.1811 C   0  0  0  0  0  0  0  0  0  0  0  0
   19.1635  -38.4933  -12.5199 N   0  0  0  0  0  0  0  0  0  0  0  0
   20.2764  -38.6818  -11.8055 C   0  0  0  0  0  0  0  0  0  0  0  0
   20.1441  -39.7564  -11.1208 N   0  0  0  0  0  0  0  0  0  0  0  0
   18.9134  -40.2517  -11.4260 N   0  0  0  0  0  0  0  0  0  0  0  0
   18.3144  -39.4810  -12.2843 N   0  0  0  0  0  0  0  0  0  0  0  0
   21.4770  -37.7542  -11.8306 C   0  0  0  0  0  0  0  0  0  0  0  0
   16.2415  -30.9379  -12.5564 H   0  0  0  0  0  0  0  0  0  0  0  0
   15.2172  -33.5365   -8.6602 H   0  0  0  0  0  0  0  0  0  0  0  0
   16.4880  -31.5120   -8.4553 H   0  0  0  0  0  0  0  0  0  0  0  0
   17.5123  -29.6401   -9.3968 H   0  0  0  0  0  0  0  0  0  0  0  0
   18.1129  -29.8597  -10.8993 H   0  0  0  0  0  0  0  0  0  0  0  0
   16.7316  -29.0150  -10.6875 H   0  0  0  0  0  0  0  0  0  0  0  0
   14.9134  -32.3712  -13.9133 H   0  0  0  0  0  0  0  0  0  0  0  0
   13.7814  -33.2943  -13.1830 H   0  0  0  0  0  0  0  0  0  0  0  0
   17.3072  -33.4577  -13.2949 H   0  0  0  0  0  0  0  0  0  0  0  0
   17.4909  -36.4806  -12.1932 H   0  0  0  0  0  0  0  0  0  0  0  0
   20.1747  -38.1198  -14.9260 H   0  0  0  0  0  0  0  0  0  0  0  0
   19.7441  -36.3034  -16.4341 H   0  0  0  0  0  0  0  0  0  0  0  0
   18.2300  -34.5577  -15.8072 H   0  0  0  0  0  0  0  0  0  0  0  0
   22.1824  -38.1053  -11.2148 H   0  0  0  0  0  0  0  0  0  0  0  0
   21.8409  -37.7052  -12.7607 H   0  0  0  0  0  0  0  0  0  0  0  0
   21.1990  -36.8410  -11.5329 H   0  0  0  0  0  0  0  0  0  0  0  0
  1  2  2  0  0  0  0
  1  6  1  0  0  0  0
  1  7  1  0  0  0  0
  2  3  1  0  0  0  0
  2 25  1  0  0  0  0
  3  4  2  0  0  0  0
  3  9  1  0  0  0  0
  4  5  1  0  0  0  0
  4  8  1  0  0  0  0
  5  6  2  0  0  0  0
  5 26  1  0  0  0  0
  6 27  1  0  0  0  0
  7 28  1  0  0  0  0
  7 29  1  0  0  0  0
  7 30  1  0  0  0  0
  9 10  1  0  0  0  0
  9 31  1  0  0  0  0
  9 32  1  0  0  0  0
 10 11  2  0  0  0  0
 10 12  1  0  0  0  0
 12 13  1  0  0  0  0
 12 33  1  0  0  0  0
 13 14  2  0  0  0  0
 13 18  1  0  0  0  0
 14 15  1  0  0  0  0
 14 34  1  0  0  0  0
 15 16  2  0  0  0  0
 15 19  1  0  0  0  0
 16 17  1  0  0  0  0
 16 35  1  0  0  0  0
 17 18  2  0  0  0  0
 17 36  1  0  0  0  0
 18 37  1  0  0  0  0
 19 20  1  0  0  0  0
 19 23  1  0  0  0  0
 20 21  2  0  0  0  0
 20 24  1  0  0  0  0
 21 22  1  0  0  0  0
 22 23  2  0  0  0  0
 24 38  1  0  0  0  0
 24 39  1  0  0  0  0
 24 40  1  0  0  0  0
M  END
> <BIOSOLVEIT.HYDE_ESTIMATED_AFFINITY_LOWER_BOUNDARY [nM]>
120701.214175

> <BIOSOLVEIT.HYDE_ESTIMATED_AFFINITY_UPPER_BOUNDARY [nM]>
11992379.270379

> <BIOSOLVEIT.HYDE_LIGAND_EFFICIENCY range: ++, +, 0, -, -->
--

> <BIOSOLVEIT.HYDE_LIGAND_LIPOPHILIC_EFFICIENCY range: ++, +, 0, -, -->
--

> <BIOSOLVEIT.INTER_CLASH range: red, yellow, green>
green

> <BIOSOLVEIT.INTRA_CLASH range: red, yellow, green>
green

> <BIOSOLVEIT.LOGP>
2.59944

> <BIOSOLVEIT.MOLECULAR WEIGHT>
325.345

> <BIOSOLVEIT.MOLECULE_CHECKSUM>
LTE2LjY2NTY7MC42OTQ0MDE=

> <BIOSOLVEIT.TORSION_QUALITY range: red, yellow, green, not rotatable>
red

> <BIOSOLVEIT.TPSA>
72.7

$$$$
PV-001794469965.****
b8Hydescor01032215413D 1   1.00000     0.00000     0
Hydescorer 1.1.2 b8048283
 40 42  0  0  0  0            999 V2000
   19.9193  -43.0286  -13.1118 C   0  0  0  0  0  0  0  0  0  0  0  0
   20.0233  -41.9912  -12.1821 C   0  0  0  0  0  0  0  0  0  0  0  0
   20.5857  -40.7663  -12.5443 C   0  0  0  0  0  0  0  0  0  0  0  0
   21.0411  -40.6159  -13.8532 C   0  0  0  0  0  0  0  0  0  0  0  0
   20.9444  -41.6298  -14.7950 C   0  0  0  0  0  0  0  0  0  0  0  0
   20.3762  -42.8430  -14.4190 C   0  0  0  0  0  0  0  0  0  0  0  0
   19.2996  -44.3500  -12.7111 C   0  0  0  0  0  0  0  0  0  0  0  0
   21.5944  -39.4404  -14.2389 F   0  0  0  0  0  0  0  0  0  0  0  0
   20.6696  -39.6220  -11.5414 C   0  0  0  0  0  0  0  0  0  0  0  0
   19.5148  -38.6744  -11.8091 C   0  0  0  0  0  0  0  0  0  0  0  0
   18.3594  -39.0103  -11.6439 O   0  0  0  0  0  0  0  0  0  0  0  0
   19.8103  -37.4235  -12.2975 N   0  0  0  0  0  0  0  0  0  0  0  0
   18.8856  -36.4042  -12.6090 C   0  0  0  0  0  0  0  0  0  0  0  0
   18.1014  -35.8217  -11.6149 C   0  0  0  0  0  0  0  0  0  0  0  0
   17.1791  -34.8462  -11.9879 C   0  0  0  0  0  0  0  0  0  0  0  0
   17.0634  -34.4115  -13.3113 C   0  0  0  0  0  0  0  0  0  0  0  0
   17.8795  -34.9855  -14.2845 C   0  0  0  0  0  0  0  0  0  0  0  0
   18.7899  -35.9832  -13.9377 C   0  0  0  0  0  0  0  0  0  0  0  0
   16.3164  -34.2781  -10.9854 N   0  0  0  0  0  0  0  0  0  0  0  0
   15.3714  -34.9046  -10.2790 C   0  0  0  0  0  0  0  0  0  0  0  0
   14.8142  -34.0544   -9.4994 N   0  0  0  0  0  0  0  0  0  0  0  0
   15.4294  -32.8632   -9.7353 N   0  0  0  0  0  0  0  0  0  0  0  0
   16.3463  -32.9989  -10.6465 N   0  0  0  0  0  0  0  0  0  0  0  0
   15.0419  -36.3801  -10.4097 C   0  0  0  0  0  0  0  0  0  0  0  0
   19.6919  -42.1274  -11.2485 H   0  0  0  0  0  0  0  0  0  0  0  0
   21.2773  -41.4913  -15.7277 H   0  0  0  0  0  0  0  0  0  0  0  0
   20.2947  -43.5837  -15.0859 H   0  0  0  0  0  0  0  0  0  0  0  0
   19.3063  -44.9722  -13.4939 H   0  0  0  0  0  0  0  0  0  0  0  0
   19.8260  -44.7513  -11.9616 H   0  0  0  0  0  0  0  0  0  0  0  0
   18.3570  -44.1993  -12.4131 H   0  0  0  0  0  0  0  0  0  0  0  0
   21.5377  -39.1379  -11.6514 H   0  0  0  0  0  0  0  0  0  0  0  0
   20.6041  -39.9816  -10.6106 H   0  0  0  0  0  0  0  0  0  0  0  0
   20.7769  -37.2154  -12.4468 H   0  0  0  0  0  0  0  0  0  0  0  0
   18.1982  -36.0968  -10.6585 H   0  0  0  0  0  0  0  0  0  0  0  0
   16.4051  -33.6996  -13.5560 H   0  0  0  0  0  0  0  0  0  0  0  0
   17.8119  -34.6809  -15.2345 H   0  0  0  0  0  0  0  0  0  0  0  0
   19.3725  -36.3959  -14.6378 H   0  0  0  0  0  0  0  0  0  0  0  0
   14.3016  -36.6135   -9.7792 H   0  0  0  0  0  0  0  0  0  0  0  0
   14.7550  -36.5757  -11.3475 H   0  0  0  0  0  0  0  0  0  0  0  0
   15.8518  -36.9233  -10.1887 H   0  0  0  0  0  0  0  0  0  0  0  0
  1  2  2  0  0  0  0
  1  6  1  0  0  0  0
  1  7  1  0  0  0  0
  2  3  1  0  0  0  0
  2 25  1  0  0  0  0
  3  4  2  0  0  0  0
  3  9  1  0  0  0  0
  4  5  1  0  0  0  0
  4  8  1  0  0  0  0
  5  6  2  0  0  0  0
  5 26  1  0  0  0  0
  6 27  1  0  0  0  0
  7 28  1  0  0  0  0
  7 29  1  0  0  0  0
  7 30  1  0  0  0  0
  9 10  1  0  0  0  0
  9 31  1  0  0  0  0
  9 32  1  0  0  0  0
 10 11  2  0  0  0  0
 10 12  1  0  0  0  0
 12 13  1  0  0  0  0
 12 33  1  0  0  0  0
 13 14  2  0  0  0  0
 13 18  1  0  0  0  0
 14 15  1  0  0  0  0
 14 34  1  0  0  0  0
 15 16  2  0  0  0  0
 15 19  1  0  0  0  0
 16 17  1  0  0  0  0
 16 35  1  0  0  0  0
 17 18  2  0  0  0  0
 17 36  1  0  0  0  0
 18 37  1  0  0  0  0
 19 20  1  0  0  0  0
 19 23  1  0  0  0  0
 20 21  2  0  0  0  0
 20 24  1  0  0  0  0
 21 22  1  0  0  0  0
 22 23  2  0  0  0  0
 24 38  1  0  0  0  0
 24 39  1  0  0  0  0
 24 40  1  0  0  0  0
M  END
> <BIOSOLVEIT.HYDE_ESTIMATED_AFFINITY_LOWER_BOUNDARY [nM]>
10232472282.354549

> <BIOSOLVEIT.HYDE_ESTIMATED_AFFINITY_UPPER_BOUNDARY [nM]>
1016656620416.032837

> <BIOSOLVEIT.HYDE_LIGAND_EFFICIENCY range: ++, +, 0, -, -->
--

> <BIOSOLVEIT.HYDE_LIGAND_LIPOPHILIC_EFFICIENCY range: ++, +, 0, -, -->
--

> <BIOSOLVEIT.INTER_CLASH range: red, yellow, green>
green

> <BIOSOLVEIT.INTRA_CLASH range: red, yellow, green>
green

> <BIOSOLVEIT.LOGP>
2.59944

> <BIOSOLVEIT.MOLECULAR WEIGHT>
325.345

> <BIOSOLVEIT.MOLECULE_CHECKSUM>
MTEuNDY1OzA=

> <BIOSOLVEIT.TORSION_QUALITY range: red, yellow, green, not rotatable>
yellow

> <BIOSOLVEIT.TPSA>
72.7

$$$$
Z28052960.****
b8Hydescor01032215413D 1   1.00000     0.00000     0
Hydescorer 1.1.2 b8048283
 34 36  0  0  0  0            999 V2000
   14.8759  -41.8503  -13.2704 C   0  0  0  0  0  0  0  0  0  0  0  0
   13.8845  -41.2567  -12.4897 C   0  0  0  0  0  0  0  0  0  0  0  0
   13.3903  -41.9796  -11.4028 C   0  0  0  0  0  0  0  0  0  0  0  0
   13.8739  -43.2599  -11.1278 C   0  0  0  0  0  0  0  0  0  0  0  0
   14.8586  -43.8329  -11.9320 C   0  0  0  0  0  0  0  0  0  0  0  0
   15.3680  -43.1234  -13.0141 C   0  0  0  0  0  0  0  0  0  0  0  0
   13.3584  -39.8590  -12.7860 C   0  0  0  0  0  0  0  0  0  0  0  0
   14.3832  -38.8827  -12.2507 C   0  0  0  0  0  0  0  0  0  0  0  0
   13.9856  -38.0584  -11.2272 N   0  0  0  0  0  0  0  0  0  0  0  0
   15.5017  -38.7999  -12.7162 O   0  0  0  0  0  0  0  0  0  0  0  0
   14.7642  -37.0767  -10.5749 C   0  0  0  0  0  0  0  0  0  0  0  0
   14.6789  -35.7255  -10.9166 C   0  0  0  0  0  0  0  0  0  0  0  0
   15.4812  -34.8201  -10.2265 C   0  0  0  0  0  0  0  0  0  0  0  0
   16.3701  -35.2313   -9.2279 C   0  0  0  0  0  0  0  0  0  0  0  0
   16.4482  -36.5855   -8.9123 C   0  0  0  0  0  0  0  0  0  0  0  0
   15.6479  -37.5096   -9.5829 C   0  0  0  0  0  0  0  0  0  0  0  0
   15.3865  -33.4251  -10.5500 N   0  0  0  0  0  0  0  0  0  0  0  0
   14.6181  -32.9264  -11.5046 N   0  0  0  0  0  0  0  0  0  0  0  0
   14.8342  -31.6420  -11.4810 N   0  0  0  0  0  0  0  0  0  0  0  0
   15.7370  -31.3278  -10.5094 N   0  0  0  0  0  0  0  0  0  0  0  0
   16.0494  -32.4421   -9.9610 C   0  0  0  0  0  0  0  0  0  0  0  0
   15.4017  -41.1640  -14.3211 F   0  0  0  0  0  0  0  0  0  0  0  0
   12.6856  -41.5781  -10.8178 H   0  0  0  0  0  0  0  0  0  0  0  0
   13.5114  -43.7701  -10.3479 H   0  0  0  0  0  0  0  0  0  0  0  0
   15.1977  -44.7520  -11.7310 H   0  0  0  0  0  0  0  0  0  0  0  0
   16.0758  -43.5225  -13.5971 H   0  0  0  0  0  0  0  0  0  0  0  0
   12.4790  -39.7187  -12.3311 H   0  0  0  0  0  0  0  0  0  0  0  0
   13.2471  -39.7349  -13.7721 H   0  0  0  0  0  0  0  0  0  0  0  0
   13.0435  -38.1644  -10.9093 H   0  0  0  0  0  0  0  0  0  0  0  0
   14.0585  -35.4163  -11.6374 H   0  0  0  0  0  0  0  0  0  0  0  0
   16.9401  -34.5640   -8.7486 H   0  0  0  0  0  0  0  0  0  0  0  0
   17.0803  -36.8962   -8.2024 H   0  0  0  0  0  0  0  0  0  0  0  0
   15.7062  -38.4813   -9.3541 H   0  0  0  0  0  0  0  0  0  0  0  0
   16.6944  -32.5526   -9.2049 H   0  0  0  0  0  0  0  0  0  0  0  0
  1  2  2  0  0  0  0
  1  6  1  0  0  0  0
  1 22  1  0  0  0  0
  2  3  1  0  0  0  0
  2  7  1  0  0  0  0
  3  4  2  0  0  0  0
  3 23  1  0  0  0  0
  4  5  1  0  0  0  0
  4 24  1  0  0  0  0
  5  6  2  0  0  0  0
  5 25  1  0  0  0  0
  6 26  1  0  0  0  0
  7  8  1  0  0  0  0
  7 27  1  0  0  0  0
  7 28  1  0  0  0  0
  8  9  1  0  0  0  0
  8 10  2  0  0  0  0
  9 11  1  0  0  0  0
  9 29  1  0  0  0  0
 11 12  2  0  0  0  0
 11 16  1  0  0  0  0
 12 13  1  0  0  0  0
 12 30  1  0  0  0  0
 13 14  2  0  0  0  0
 13 17  1  0  0  0  0
 14 15  1  0  0  0  0
 14 31  1  0  0  0  0
 15 16  2  0  0  0  0
 15 32  1  0  0  0  0
 16 33  1  0  0  0  0
 17 18  1  0  0  0  0
 17 21  1  0  0  0  0
 18 19  2  0  0  0  0
 19 20  1  0  0  0  0
 20 21  2  0  0  0  0
 21 34  1  0  0  0  0
M  END
> <BIOSOLVEIT.HYDE_ESTIMATED_AFFINITY_LOWER_BOUNDARY [nM]>
167808738.377284

> <BIOSOLVEIT.HYDE_ESTIMATED_AFFINITY_UPPER_BOUNDARY [nM]>
16672790321.565414

> <BIOSOLVEIT.HYDE_LIGAND_EFFICIENCY range: ++, +, 0, -, -->
--

> <BIOSOLVEIT.HYDE_LIGAND_LIPOPHILIC_EFFICIENCY range: ++, +, 0, -, -->
--

> <BIOSOLVEIT.INTER_CLASH range: red, yellow, green>
green

> <BIOSOLVEIT.INTRA_CLASH range: red, yellow, green>
green

> <BIOSOLVEIT.LOGP>
1.9826

> <BIOSOLVEIT.MOLECULAR WEIGHT>
297.292

> <BIOSOLVEIT.MOLECULE_CHECKSUM>
MS4yNzUyMzsw

> <BIOSOLVEIT.TORSION_QUALITY range: red, yellow, green, not rotatable>
yellow

> <BIOSOLVEIT.TPSA>
72.7

$$$$
Z28052960.****
b8Hydescor01032215413D 1   1.00000     0.00000     0
Hydescorer 1.1.2 b8048283
 34 36  0  0  0  0            999 V2000
   19.3827  -38.5470  -15.2636 C   0  0  0  0  0  0  0  0  0  0  0  0
   20.1743  -37.6108  -14.5990 C   0  0  0  0  0  0  0  0  0  0  0  0
   21.3659  -37.2145  -15.2085 C   0  0  0  0  0  0  0  0  0  0  0  0
   21.7450  -37.7573  -16.4373 C   0  0  0  0  0  0  0  0  0  0  0  0
   20.9383  -38.6997  -17.0745 C   0  0  0  0  0  0  0  0  0  0  0  0
   19.7438  -39.0999  -16.4854 C   0  0  0  0  0  0  0  0  0  0  0  0
   19.7608  -37.0151  -13.2603 C   0  0  0  0  0  0  0  0  0  0  0  0
   18.7156  -35.9609  -13.5543 C   0  0  0  0  0  0  0  0  0  0  0  0
   18.0223  -35.4529  -12.4836 N   0  0  0  0  0  0  0  0  0  0  0  0
   18.4692  -35.5929  -14.6851 O   0  0  0  0  0  0  0  0  0  0  0  0
   17.0093  -34.4691  -12.5162 C   0  0  0  0  0  0  0  0  0  0  0  0
   17.0512  -33.3443  -11.6898 C   0  0  0  0  0  0  0  0  0  0  0  0
   16.0126  -32.4210  -11.7818 C   0  0  0  0  0  0  0  0  0  0  0  0
   14.9363  -32.6030  -12.6563 C   0  0  0  0  0  0  0  0  0  0  0  0
   14.9085  -33.7387  -13.4620 C   0  0  0  0  0  0  0  0  0  0  0  0
   15.9418  -34.6724  -13.3945 C   0  0  0  0  0  0  0  0  0  0  0  0
   16.0545  -31.2479  -10.9561 N   0  0  0  0  0  0  0  0  0  0  0  0
   16.4344  -31.2350   -9.6888 N   0  0  0  0  0  0  0  0  0  0  0  0
   16.3131  -29.9951   -9.3085 N   0  0  0  0  0  0  0  0  0  0  0  0
   15.8591  -29.2229  -10.3357 N   0  0  0  0  0  0  0  0  0  0  0  0
   15.7153  -30.0227  -11.3256 C   0  0  0  0  0  0  0  0  0  0  0  0
   18.2004  -38.9357  -14.7134 F   0  0  0  0  0  0  0  0  0  0  0  0
   21.9514  -36.5377  -14.7622 H   0  0  0  0  0  0  0  0  0  0  0  0
   22.6018  -37.4682  -16.8642 H   0  0  0  0  0  0  0  0  0  0  0  0
   21.2181  -39.0868  -17.9531 H   0  0  0  0  0  0  0  0  0  0  0  0
   19.1558  -39.7734  -16.9331 H   0  0  0  0  0  0  0  0  0  0  0  0
   20.5510  -36.6000  -12.8095 H   0  0  0  0  0  0  0  0  0  0  0  0
   19.3764  -37.7259  -12.6713 H   0  0  0  0  0  0  0  0  0  0  0  0
   18.2602  -35.8187  -11.5838 H   0  0  0  0  0  0  0  0  0  0  0  0
   17.8066  -33.2056  -11.0492 H   0  0  0  0  0  0  0  0  0  0  0  0
   14.1990  -31.9290  -12.7023 H   0  0  0  0  0  0  0  0  0  0  0  0
   14.1449  -33.8850  -14.0910 H   0  0  0  0  0  0  0  0  0  0  0  0
   15.9188  -35.4868  -13.9742 H   0  0  0  0  0  0  0  0  0  0  0  0
   15.3962  -29.7620  -12.2368 H   0  0  0  0  0  0  0  0  0  0  0  0
  1  2  2  0  0  0  0
  1  6  1  0  0  0  0
  1 22  1  0  0  0  0
  2  3  1  0  0  0  0
  2  7  1  0  0  0  0
  3  4  2  0  0  0  0
  3 23  1  0  0  0  0
  4  5  1  0  0  0  0
  4 24  1  0  0  0  0
  5  6  2  0  0  0  0
  5 25  1  0  0  0  0
  6 26  1  0  0  0  0
  7  8  1  0  0  0  0
  7 27  1  0  0  0  0
  7 28  1  0  0  0  0
  8  9  1  0  0  0  0
  8 10  2  0  0  0  0
  9 11  1  0  0  0  0
  9 29  1  0  0  0  0
 11 12  2  0  0  0  0
 11 16  1  0  0  0  0
 12 13  1  0  0  0  0
 12 30  1  0  0  0  0
 13 14  2  0  0  0  0
 13 17  1  0  0  0  0
 14 15  1  0  0  0  0
 14 31  1  0  0  0  0
 15 16  2  0  0  0  0
 15 32  1  0  0  0  0
 16 33  1  0  0  0  0
 17 18  1  0  0  0  0
 17 21  1  0  0  0  0
 18 19  2  0  0  0  0
 19 20  1  0  0  0  0
 20 21  2  0  0  0  0
 21 34  1  0  0  0  0
M  END
> <BIOSOLVEIT.HYDE_ESTIMATED_AFFINITY_LOWER_BOUNDARY [nM]>
13722146.985034

> <BIOSOLVEIT.HYDE_ESTIMATED_AFFINITY_UPPER_BOUNDARY [nM]>
1363376434.717009

> <BIOSOLVEIT.HYDE_LIGAND_EFFICIENCY range: ++, +, 0, -, -->
--

> <BIOSOLVEIT.HYDE_LIGAND_LIPOPHILIC_EFFICIENCY range: ++, +, 0, -, -->
--

> <BIOSOLVEIT.INTER_CLASH range: red, yellow, green>
green

> <BIOSOLVEIT.INTRA_CLASH range: red, yellow, green>
green

> <BIOSOLVEIT.LOGP>
1.9826

> <BIOSOLVEIT.MOLECULAR WEIGHT>
297.292

> <BIOSOLVEIT.MOLECULE_CHECKSUM>
LTQuOTMxNjE7MC4yMjQxNjQ=

> <BIOSOLVEIT.TORSION_QUALITY range: red, yellow, green, not rotatable>
yellow

> <BIOSOLVEIT.TPSA>
72.7

$$$$
Z28052960.****
b8Hydescor01032215413D 1   1.00000     0.00000     0
Hydescorer 1.1.2 b8048283
 34 36  0  0  0  0            999 V2000
   15.5567  -31.6962  -11.5922 C   0  0  0  0  0  0  0  0  0  0  0  0
   15.7173  -32.4413  -10.4244 C   0  0  0  0  0  0  0  0  0  0  0  0
   16.4655  -31.8781   -9.3893 C   0  0  0  0  0  0  0  0  0  0  0  0
   17.0391  -30.6143   -9.5394 C   0  0  0  0  0  0  0  0  0  0  0  0
   16.8703  -29.8960  -10.7228 C   0  0  0  0  0  0  0  0  0  0  0  0
   16.1211  -30.4386  -11.7611 C   0  0  0  0  0  0  0  0  0  0  0  0
   15.0895  -33.8183  -10.2575 C   0  0  0  0  0  0  0  0  0  0  0  0
   15.7460  -34.7252  -11.2755 C   0  0  0  0  0  0  0  0  0  0  0  0
   17.0349  -35.1227  -11.0187 N   0  0  0  0  0  0  0  0  0  0  0  0
   15.1809  -35.0696  -12.2937 O   0  0  0  0  0  0  0  0  0  0  0  0
   17.8416  -35.9612  -11.8196 C   0  0  0  0  0  0  0  0  0  0  0  0
   18.1811  -37.2549  -11.4183 C   0  0  0  0  0  0  0  0  0  0  0  0
   18.9816  -38.0177  -12.2650 C   0  0  0  0  0  0  0  0  0  0  0  0
   19.4607  -37.5171  -13.4800 C   0  0  0  0  0  0  0  0  0  0  0  0
   19.1202  -36.2196  -13.8543 C   0  0  0  0  0  0  0  0  0  0  0  0
   18.3120  -35.4401  -13.0277 C   0  0  0  0  0  0  0  0  0  0  0  0
   19.3186  -39.3577  -11.8771 N   0  0  0  0  0  0  0  0  0  0  0  0
   18.4428  -40.3374  -11.7230 N   0  0  0  0  0  0  0  0  0  0  0  0
   19.1467  -41.3703  -11.3560 N   0  0  0  0  0  0  0  0  0  0  0  0
   20.4681  -41.0450  -11.2809 N   0  0  0  0  0  0  0  0  0  0  0  0
   20.5341  -39.8087  -11.6085 C   0  0  0  0  0  0  0  0  0  0  0  0
   14.8099  -32.2011  -12.6115 F   0  0  0  0  0  0  0  0  0  0  0  0
   16.5912  -32.3828   -8.5352 H   0  0  0  0  0  0  0  0  0  0  0  0
   17.5753  -30.2210   -8.7926 H   0  0  0  0  0  0  0  0  0  0  0  0
   17.2871  -28.9926  -10.8245 H   0  0  0  0  0  0  0  0  0  0  0  0
   15.9912  -29.9325  -12.6138 H   0  0  0  0  0  0  0  0  0  0  0  0
   14.1047  -33.7700  -10.4241 H   0  0  0  0  0  0  0  0  0  0  0  0
   15.2548  -34.1620   -9.3331 H   0  0  0  0  0  0  0  0  0  0  0  0
   17.4469  -34.7819  -10.1737 H   0  0  0  0  0  0  0  0  0  0  0  0
   17.8582  -37.6235  -10.5466 H   0  0  0  0  0  0  0  0  0  0  0  0
   20.0381  -38.0815  -14.0700 H   0  0  0  0  0  0  0  0  0  0  0  0
   19.4565  -35.8458  -14.7187 H   0  0  0  0  0  0  0  0  0  0  0  0
   18.0693  -34.5088  -13.2993 H   0  0  0  0  0  0  0  0  0  0  0  0
   21.3738  -39.2676  -11.6543 H   0  0  0  0  0  0  0  0  0  0  0  0
  1  2  2  0  0  0  0
  1  6  1  0  0  0  0
  1 22  1  0  0  0  0
  2  3  1  0  0  0  0
  2  7  1  0  0  0  0
  3  4  2  0  0  0  0
  3 23  1  0  0  0  0
  4  5  1  0  0  0  0
  4 24  1  0  0  0  0
  5  6  2  0  0  0  0
  5 25  1  0  0  0  0
  6 26  1  0  0  0  0
  7  8  1  0  0  0  0
  7 27  1  0  0  0  0
  7 28  1  0  0  0  0
  8  9  1  0  0  0  0
  8 10  2  0  0  0  0
  9 11  1  0  0  0  0
  9 29  1  0  0  0  0
 11 12  2  0  0  0  0
 11 16  1  0  0  0  0
 12 13  1  0  0  0  0
 12 30  1  0  0  0  0
 13 14  2  0  0  0  0
 13 17  1  0  0  0  0
 14 15  1  0  0  0  0
 14 31  1  0  0  0  0
 15 16  2  0  0  0  0
 15 32  1  0  0  0  0
 16 33  1  0  0  0  0
 17 18  1  0  0  0  0
 17 21  1  0  0  0  0
 18 19  2  0  0  0  0
 19 20  1  0  0  0  0
 20 21  2  0  0  0  0
 21 34  1  0  0  0  0
M  END
> <BIOSOLVEIT.HYDE_ESTIMATED_AFFINITY_LOWER_BOUNDARY [nM]>
80674.993621

> <BIOSOLVEIT.HYDE_ESTIMATED_AFFINITY_UPPER_BOUNDARY [nM]>
8015537.604590

> <BIOSOLVEIT.HYDE_LIGAND_EFFICIENCY range: ++, +, 0, -, -->
--

> <BIOSOLVEIT.HYDE_LIGAND_LIPOPHILIC_EFFICIENCY range: ++, +, 0, -, -->
--

> <BIOSOLVEIT.INTER_CLASH range: red, yellow, green>
green

> <BIOSOLVEIT.INTRA_CLASH range: red, yellow, green>
green

> <BIOSOLVEIT.LOGP>
1.9826

> <BIOSOLVEIT.MOLECULAR WEIGHT>
297.292

> <BIOSOLVEIT.MOLECULE_CHECKSUM>
LTE3LjY2NDQ7MC44MDI5MjY=

> <BIOSOLVEIT.TORSION_QUALITY range: red, yellow, green, not rotatable>
red

> <BIOSOLVEIT.TPSA>
72.7

$$$$
Z28052960.****
b8Hydescor01032215413D 1   1.00000     0.00000     0
Hydescorer 1.1.2 b8048283
 34 36  0  0  0  0            999 V2000
   15.0679  -32.6154  -12.1937 C   0  0  0  0  0  0  0  0  0  0  0  0
   14.8108  -33.6295  -11.2715 C   0  0  0  0  0  0  0  0  0  0  0  0
   15.2259  -33.4327   -9.9534 C   0  0  0  0  0  0  0  0  0  0  0  0
   15.8877  -32.2588   -9.5893 C   0  0  0  0  0  0  0  0  0  0  0  0
   16.1405  -31.2659  -10.5353 C   0  0  0  0  0  0  0  0  0  0  0  0
   15.7267  -31.4418  -11.8512 C   0  0  0  0  0  0  0  0  0  0  0  0
   14.0860  -34.9090  -11.6660 C   0  0  0  0  0  0  0  0  0  0  0  0
   15.1457  -35.8931  -12.1115 C   0  0  0  0  0  0  0  0  0  0  0  0
   14.7701  -37.2094  -12.2192 N   0  0  0  0  0  0  0  0  0  0  0  0
   16.2892  -35.5530  -12.3379 O   0  0  0  0  0  0  0  0  0  0  0  0
   15.5822  -38.2957  -12.6137 C   0  0  0  0  0  0  0  0  0  0  0  0
   16.8418  -38.5129  -12.0514 C   0  0  0  0  0  0  0  0  0  0  0  0
   17.5811  -39.6063  -12.4957 C   0  0  0  0  0  0  0  0  0  0  0  0
   17.1047  -40.4664  -13.4906 C   0  0  0  0  0  0  0  0  0  0  0  0
   15.8512  -40.2233  -14.0466 C   0  0  0  0  0  0  0  0  0  0  0  0
   15.0885  -39.1404  -13.6111 C   0  0  0  0  0  0  0  0  0  0  0  0
   18.8671  -39.8563  -11.9096 N   0  0  0  0  0  0  0  0  0  0  0  0
   19.5334  -38.9900  -11.1639 N   0  0  0  0  0  0  0  0  0  0  0  0
   20.6443  -39.5934  -10.8495 N   0  0  0  0  0  0  0  0  0  0  0  0
   20.6795  -40.8424  -11.3937 N   0  0  0  0  0  0  0  0  0  0  0  0
   19.5761  -40.9677  -12.0318 C   0  0  0  0  0  0  0  0  0  0  0  0
   14.6526  -32.7600  -13.4813 F   0  0  0  0  0  0  0  0  0  0  0  0
   15.0481  -34.1368   -9.2659 H   0  0  0  0  0  0  0  0  0  0  0  0
   16.1828  -32.1289   -8.6427 H   0  0  0  0  0  0  0  0  0  0  0  0
   16.6182  -30.4291  -10.2679 H   0  0  0  0  0  0  0  0  0  0  0  0
   15.9004  -30.7362  -12.5382 H   0  0  0  0  0  0  0  0  0  0  0  0
   13.4490  -34.7267  -12.4150 H   0  0  0  0  0  0  0  0  0  0  0  0
   13.5836  -35.2753  -10.8828 H   0  0  0  0  0  0  0  0  0  0  0  0
   13.8192  -37.4218  -11.9943 H   0  0  0  0  0  0  0  0  0  0  0  0
   17.2032  -37.8999  -11.3487 H   0  0  0  0  0  0  0  0  0  0  0  0
   17.6550  -41.2429  -13.7975 H   0  0  0  0  0  0  0  0  0  0  0  0
   15.4971  -40.8274  -14.7604 H   0  0  0  0  0  0  0  0  0  0  0  0
   14.1888  -38.9685  -14.0124 H   0  0  0  0  0  0  0  0  0  0  0  0
   19.2938  -41.7793  -12.5432 H   0  0  0  0  0  0  0  0  0  0  0  0
  1  2  2  0  0  0  0
  1  6  1  0  0  0  0
  1 22  1  0  0  0  0
  2  3  1  0  0  0  0
  2  7  1  0  0  0  0
  3  4  2  0  0  0  0
  3 23  1  0  0  0  0
  4  5  1  0  0  0  0
  4 24  1  0  0  0  0
  5  6  2  0  0  0  0
  5 25  1  0  0  0  0
  6 26  1  0  0  0  0
  7  8  1  0  0  0  0
  7 27  1  0  0  0  0
  7 28  1  0  0  0  0
  8  9  1  0  0  0  0
  8 10  2  0  0  0  0
  9 11  1  0  0  0  0
  9 29  1  0  0  0  0
 11 12  2  0  0  0  0
 11 16  1  0  0  0  0
 12 13  1  0  0  0  0
 12 30  1  0  0  0  0
 13 14  2  0  0  0  0
 13 17  1  0  0  0  0
 14 15  1  0  0  0  0
 14 31  1  0  0  0  0
 15 16  2  0  0  0  0
 15 32  1  0  0  0  0
 16 33  1  0  0  0  0
 17 18  1  0  0  0  0
 17 21  1  0  0  0  0
 18 19  2  0  0  0  0
 19 20  1  0  0  0  0
 20 21  2  0  0  0  0
 21 34  1  0  0  0  0
M  END
> <BIOSOLVEIT.HYDE_ESTIMATED_AFFINITY_LOWER_BOUNDARY [nM]>
16274864.960266

> <BIOSOLVEIT.HYDE_ESTIMATED_AFFINITY_UPPER_BOUNDARY [nM]>
1617004058.419364

> <BIOSOLVEIT.HYDE_LIGAND_EFFICIENCY range: ++, +, 0, -, -->
--

> <BIOSOLVEIT.HYDE_LIGAND_LIPOPHILIC_EFFICIENCY range: ++, +, 0, -, -->
--

> <BIOSOLVEIT.INTER_CLASH range: red, yellow, green>
green

> <BIOSOLVEIT.INTRA_CLASH range: red, yellow, green>
green

> <BIOSOLVEIT.LOGP>
1.9826

> <BIOSOLVEIT.MOLECULAR WEIGHT>
297.292

> <BIOSOLVEIT.MOLECULE_CHECKSUM>
LTQuNTA4Njg7MC4yMDQ5NA==

> <BIOSOLVEIT.TORSION_QUALITY range: red, yellow, green, not rotatable>
green

> <BIOSOLVEIT.TPSA>
72.7

$$$$
Z28052960.****
b8Hydescor01032215413D 1   1.00000     0.00000     0
Hydescorer 1.1.2 b8048283
 34 36  0  0  0  0            999 V2000
   18.9708  -37.0721  -17.0138 C   0  0  0  0  0  0  0  0  0  0  0  0
   18.1448  -36.6530  -15.9713 C   0  0  0  0  0  0  0  0  0  0  0  0
   16.8242  -36.3213  -16.2787 C   0  0  0  0  0  0  0  0  0  0  0  0
   16.3647  -36.3990  -17.5945 C   0  0  0  0  0  0  0  0  0  0  0  0
   17.2163  -36.8117  -18.6189 C   0  0  0  0  0  0  0  0  0  0  0  0
   18.5327  -37.1537  -18.3291 C   0  0  0  0  0  0  0  0  0  0  0  0
   18.6431  -36.5712  -14.5350 C   0  0  0  0  0  0  0  0  0  0  0  0
   18.0727  -35.2996  -13.9454 C   0  0  0  0  0  0  0  0  0  0  0  0
   17.1706  -35.4365  -12.9195 N   0  0  0  0  0  0  0  0  0  0  0  0
   18.3676  -34.2011  -14.3708 O   0  0  0  0  0  0  0  0  0  0  0  0
   16.5132  -34.3994  -12.2212 C   0  0  0  0  0  0  0  0  0  0  0  0
   17.0849  -33.1334  -12.0782 C   0  0  0  0  0  0  0  0  0  0  0  0
   16.3728  -32.1655  -11.3743 C   0  0  0  0  0  0  0  0  0  0  0  0
   15.1261  -32.4355  -10.8005 C   0  0  0  0  0  0  0  0  0  0  0  0
   14.5807  -33.7089  -10.9446 C   0  0  0  0  0  0  0  0  0  0  0  0
   15.2705  -34.6917  -11.6533 C   0  0  0  0  0  0  0  0  0  0  0  0
   16.9367  -30.8525  -11.2400 N   0  0  0  0  0  0  0  0  0  0  0  0
   17.9704  -30.4050  -11.9342 N   0  0  0  0  0  0  0  0  0  0  0  0
   18.1705  -29.1915  -11.5048 N   0  0  0  0  0  0  0  0  0  0  0  0
   17.2617  -28.8703  -10.5412 N   0  0  0  0  0  0  0  0  0  0  0  0
   16.5238  -29.9085  -10.4086 C   0  0  0  0  0  0  0  0  0  0  0  0
   20.2559  -37.4309  -16.7474 F   0  0  0  0  0  0  0  0  0  0  0  0
   16.2037  -36.0262  -15.5521 H   0  0  0  0  0  0  0  0  0  0  0  0
   15.4175  -36.1568  -17.8043 H   0  0  0  0  0  0  0  0  0  0  0  0
   16.8811  -36.8616  -19.5597 H   0  0  0  0  0  0  0  0  0  0  0  0
   19.1525  -37.4529  -19.0546 H   0  0  0  0  0  0  0  0  0  0  0  0
   19.6425  -36.5400  -14.5186 H   0  0  0  0  0  0  0  0  0  0  0  0
   18.3258  -37.3642  -14.0149 H   0  0  0  0  0  0  0  0  0  0  0  0
   16.9557  -36.3712  -12.6360 H   0  0  0  0  0  0  0  0  0  0  0  0
   17.9814  -32.9274  -12.4706 H   0  0  0  0  0  0  0  0  0  0  0  0
   14.6346  -31.7261  -10.2953 H   0  0  0  0  0  0  0  0  0  0  0  0
   13.6914  -33.9190  -10.5384 H   0  0  0  0  0  0  0  0  0  0  0  0
   14.8762  -35.6051  -11.7549 H   0  0  0  0  0  0  0  0  0  0  0  0
   15.7547  -29.9931   -9.7752 H   0  0  0  0  0  0  0  0  0  0  0  0
  1  2  2  0  0  0  0
  1  6  1  0  0  0  0
  1 22  1  0  0  0  0
  2  3  1  0  0  0  0
  2  7  1  0  0  0  0
  3  4  2  0  0  0  0
  3 23  1  0  0  0  0
  4  5  1  0  0  0  0
  4 24  1  0  0  0  0
  5  6  2  0  0  0  0
  5 25  1  0  0  0  0
  6 26  1  0  0  0  0
  7  8  1  0  0  0  0
  7 27  1  0  0  0  0
  7 28  1  0  0  0  0
  8  9  1  0  0  0  0
  8 10  2  0  0  0  0
  9 11  1  0  0  0  0
  9 29  1  0  0  0  0
 11 12  2  0  0  0  0
 11 16  1  0  0  0  0
 12 13  1  0  0  0  0
 12 30  1  0  0  0  0
 13 14  2  0  0  0  0
 13 17  1  0  0  0  0
 14 15  1  0  0  0  0
 14 31  1  0  0  0  0
 15 16  2  0  0  0  0
 15 32  1  0  0  0  0
 16 33  1  0  0  0  0
 17 18  1  0  0  0  0
 17 21  1  0  0  0  0
 18 19  2  0  0  0  0
 19 20  1  0  0  0  0
 20 21  2  0  0  0  0
 21 34  1  0  0  0  0
M  END
> <BIOSOLVEIT.HYDE_ESTIMATED_AFFINITY_LOWER_BOUNDARY [nM]>
246201575815.029022

> <BIOSOLVEIT.HYDE_ESTIMATED_AFFINITY_UPPER_BOUNDARY [nM]>
24461582216141.902344

> <BIOSOLVEIT.HYDE_LIGAND_EFFICIENCY range: ++, +, 0, -, -->
--

> <BIOSOLVEIT.HYDE_LIGAND_LIPOPHILIC_EFFICIENCY range: ++, +, 0, -, -->
--

> <BIOSOLVEIT.INTER_CLASH range: red, yellow, green>
green

> <BIOSOLVEIT.INTRA_CLASH range: red, yellow, green>
yellow

> <BIOSOLVEIT.LOGP>
1.9826

> <BIOSOLVEIT.MOLECULAR WEIGHT>
297.292

> <BIOSOLVEIT.MOLECULE_CHECKSUM>
MTkuMzQ5NTsw

> <BIOSOLVEIT.TORSION_QUALITY range: red, yellow, green, not rotatable>
yellow

> <BIOSOLVEIT.TPSA>
72.7

$$$$
Z279577954.****
b8Hydescor01032215413D 1   1.00000     0.00000     0
Hydescorer 1.1.2 b8048283
 33 34  0  0  0  0            999 V2000
   19.3500  -39.7323  -12.3828 C   0  0  0  0  0  0  0  0  0  0  0  0
   20.1792  -38.6764  -12.0264 C   0  0  0  0  0  0  0  0  0  0  0  0
   19.6054  -37.4721  -11.6251 C   0  0  0  0  0  0  0  0  0  0  0  0
   18.2093  -37.3580  -11.5785 C   0  0  0  0  0  0  0  0  0  0  0  0
   17.3749  -38.4161  -11.9454 C   0  0  0  0  0  0  0  0  0  0  0  0
   17.9537  -39.6178  -12.3619 C   0  0  0  0  0  0  0  0  0  0  0  0
   17.1895  -40.7603  -12.7504 N   0  0  0  0  0  0  0  0  0  0  0  0
   16.5694  -41.0157  -13.9436 C   0  0  0  0  0  0  0  0  0  0  0  0
   15.8362  -42.3249  -14.0382 C   0  0  0  0  0  0  0  0  0  0  0  0
   16.6280  -40.2402  -14.8697 O   0  0  0  0  0  0  0  0  0  0  0  0
   19.9193  -40.9002  -12.7592 F   0  0  0  0  0  0  0  0  0  0  0  0
   17.6017  -36.1520  -11.1738 N   0  0  0  0  0  0  0  0  0  0  0  0
   17.5205  -34.9785  -11.8752 C   0  0  0  0  0  0  0  0  0  0  0  0
   16.8580  -33.7807  -11.3464 C   0  0  0  0  0  0  0  0  0  0  0  0
   18.0456  -35.0233  -12.9760 O   0  0  0  0  0  0  0  0  0  0  0  0
   16.3724  -32.8080  -12.2315 C   0  0  0  0  0  0  0  0  0  0  0  0
   15.7510  -31.6604  -11.7527 C   0  0  0  0  0  0  0  0  0  0  0  0
   15.5975  -31.4714  -10.3821 C   0  0  0  0  0  0  0  0  0  0  0  0
   16.0609  -32.4349   -9.4911 C   0  0  0  0  0  0  0  0  0  0  0  0
   16.6815  -33.5836   -9.9681 C   0  0  0  0  0  0  0  0  0  0  0  0
   21.1734  -38.7793  -12.0574 H   0  0  0  0  0  0  0  0  0  0  0  0
   20.1841  -36.6966  -11.3728 H   0  0  0  0  0  0  0  0  0  0  0  0
   16.3806  -38.3155  -11.9107 H   0  0  0  0  0  0  0  0  0  0  0  0
   17.0945  -41.4720  -12.0545 H   0  0  0  0  0  0  0  0  0  0  0  0
   15.4225  -42.4106  -14.9446 H   0  0  0  0  0  0  0  0  0  0  0  0
   16.4780  -43.0777  -13.8922 H   0  0  0  0  0  0  0  0  0  0  0  0
   15.1203  -42.3572  -13.3407 H   0  0  0  0  0  0  0  0  0  0  0  0
   17.1801  -36.1535  -10.2670 H   0  0  0  0  0  0  0  0  0  0  0  0
   16.4741  -32.9411  -13.2174 H   0  0  0  0  0  0  0  0  0  0  0  0
   15.4142  -30.9702  -12.3932 H   0  0  0  0  0  0  0  0  0  0  0  0
   15.1543  -30.6437  -10.0378 H   0  0  0  0  0  0  0  0  0  0  0  0
   15.9473  -32.3007   -8.5067 H   0  0  0  0  0  0  0  0  0  0  0  0
   17.0051  -34.2759   -9.3232 H   0  0  0  0  0  0  0  0  0  0  0  0
  1  2  2  0  0  0  0
  1  6  1  0  0  0  0
  1 11  1  0  0  0  0
  2  3  1  0  0  0  0
  2 21  1  0  0  0  0
  3  4  2  0  0  0  0
  3 22  1  0  0  0  0
  4  5  1  0  0  0  0
  4 12  1  0  0  0  0
  5  6  2  0  0  0  0
  5 23  1  0  0  0  0
  6  7  1  0  0  0  0
  7  8  1  0  0  0  0
  7 24  1  0  0  0  0
  8  9  1  0  0  0  0
  8 10  2  0  0  0  0
  9 25  1  0  0  0  0
  9 26  1  0  0  0  0
  9 27  1  0  0  0  0
 12 13  1  0  0  0  0
 12 28  1  0  0  0  0
 13 14  1  0  0  0  0
 13 15  2  0  0  0  0
 14 16  2  0  0  0  0
 14 20  1  0  0  0  0
 16 17  1  0  0  0  0
 16 29  1  0  0  0  0
 17 18  2  0  0  0  0
 17 30  1  0  0  0  0
 18 19  1  0  0  0  0
 18 31  1  0  0  0  0
 19 20  2  0  0  0  0
 19 32  1  0  0  0  0
 20 33  1  0  0  0  0
M  END
> <BIOSOLVEIT.HYDE_ESTIMATED_AFFINITY_LOWER_BOUNDARY [nM]>
618675.829323

> <BIOSOLVEIT.HYDE_ESTIMATED_AFFINITY_UPPER_BOUNDARY [nM]>
61469101.544259

> <BIOSOLVEIT.HYDE_LIGAND_EFFICIENCY range: ++, +, 0, -, -->
--

> <BIOSOLVEIT.HYDE_LIGAND_LIPOPHILIC_EFFICIENCY range: ++, +, 0, -, -->
--

> <BIOSOLVEIT.INTER_CLASH range: red, yellow, green>
green

> <BIOSOLVEIT.INTRA_CLASH range: red, yellow, green>
green

> <BIOSOLVEIT.LOGP>
3.0364

> <BIOSOLVEIT.MOLECULAR WEIGHT>
272.278

> <BIOSOLVEIT.MOLECULE_CHECKSUM>
LTEyLjYxNDQ7MC42MzA3MTg=

> <BIOSOLVEIT.TORSION_QUALITY range: red, yellow, green, not rotatable>
red

> <BIOSOLVEIT.TPSA>
58.2

$$$$
Z279577954.****
b8Hydescor01032215413D 1   1.00000     0.00000     0
Hydescorer 1.1.2 b8048283
 33 34  0  0  0  0            999 V2000
   13.5244  -38.7953  -13.0217 C   0  0  0  0  0  0  0  0  0  0  0  0
   12.5136  -37.8944  -12.7116 C   0  0  0  0  0  0  0  0  0  0  0  0
   12.8543  -36.6543  -12.1765 C   0  0  0  0  0  0  0  0  0  0  0  0
   14.2052  -36.3402  -11.9757 C   0  0  0  0  0  0  0  0  0  0  0  0
   15.2218  -37.2487  -12.2787 C   0  0  0  0  0  0  0  0  0  0  0  0
   14.8758  -38.4977  -12.8011 C   0  0  0  0  0  0  0  0  0  0  0  0
   15.8388  -39.4933  -13.1501 N   0  0  0  0  0  0  0  0  0  0  0  0
   16.8805  -39.9805  -12.4078 C   0  0  0  0  0  0  0  0  0  0  0  0
   17.7220  -41.0373  -13.0676 C   0  0  0  0  0  0  0  0  0  0  0  0
   17.0944  -39.5947  -11.2819 O   0  0  0  0  0  0  0  0  0  0  0  0
   13.1814  -39.9917  -13.5517 F   0  0  0  0  0  0  0  0  0  0  0  0
   14.5788  -35.0916  -11.4383 N   0  0  0  0  0  0  0  0  0  0  0  0
   15.4627  -34.1854  -11.9609 C   0  0  0  0  0  0  0  0  0  0  0  0
   15.7734  -32.9095  -11.3061 C   0  0  0  0  0  0  0  0  0  0  0  0
   15.9629  -34.5359  -13.0176 O   0  0  0  0  0  0  0  0  0  0  0  0
   16.1475  -32.8955   -9.9551 C   0  0  0  0  0  0  0  0  0  0  0  0
   16.4359  -31.6977   -9.3115 C   0  0  0  0  0  0  0  0  0  0  0  0
   16.3635  -30.4960  -10.0105 C   0  0  0  0  0  0  0  0  0  0  0  0
   16.0081  -30.4947  -11.3560 C   0  0  0  0  0  0  0  0  0  0  0  0
   15.7203  -31.6917  -12.0017 C   0  0  0  0  0  0  0  0  0  0  0  0
   11.5554  -38.1326  -12.8700 H   0  0  0  0  0  0  0  0  0  0  0  0
   12.1418  -35.9945  -11.9380 H   0  0  0  0  0  0  0  0  0  0  0  0
   16.1804  -37.0096  -12.1245 H   0  0  0  0  0  0  0  0  0  0  0  0
   15.7379  -39.8890  -14.0629 H   0  0  0  0  0  0  0  0  0  0  0  0
   18.4496  -41.3219  -12.4433 H   0  0  0  0  0  0  0  0  0  0  0  0
   17.1500  -41.8256  -13.2941 H   0  0  0  0  0  0  0  0  0  0  0  0
   18.1262  -40.6675  -13.9040 H   0  0  0  0  0  0  0  0  0  0  0  0
   14.1472  -34.8374  -10.5727 H   0  0  0  0  0  0  0  0  0  0  0  0
   16.2075  -33.7561   -9.4493 H   0  0  0  0  0  0  0  0  0  0  0  0
   16.6955  -31.6992   -8.3458 H   0  0  0  0  0  0  0  0  0  0  0  0
   16.5668  -29.6341   -9.5459 H   0  0  0  0  0  0  0  0  0  0  0  0
   15.9595  -29.6317  -11.8590 H   0  0  0  0  0  0  0  0  0  0  0  0
   15.4733  -31.6849  -12.9706 H   0  0  0  0  0  0  0  0  0  0  0  0
  1  2  2  0  0  0  0
  1  6  1  0  0  0  0
  1 11  1  0  0  0  0
  2  3  1  0  0  0  0
  2 21  1  0  0  0  0
  3  4  2  0  0  0  0
  3 22  1  0  0  0  0
  4  5  1  0  0  0  0
  4 12  1  0  0  0  0
  5  6  2  0  0  0  0
  5 23  1  0  0  0  0
  6  7  1  0  0  0  0
  7  8  1  0  0  0  0
  7 24  1  0  0  0  0
  8  9  1  0  0  0  0
  8 10  2  0  0  0  0
  9 25  1  0  0  0  0
  9 26  1  0  0  0  0
  9 27  1  0  0  0  0
 12 13  1  0  0  0  0
 12 28  1  0  0  0  0
 13 14  1  0  0  0  0
 13 15  2  0  0  0  0
 14 16  2  0  0  0  0
 14 20  1  0  0  0  0
 16 17  1  0  0  0  0
 16 29  1  0  0  0  0
 17 18  2  0  0  0  0
 17 30  1  0  0  0  0
 18 19  1  0  0  0  0
 18 31  1  0  0  0  0
 19 20  2  0  0  0  0
 19 32  1  0  0  0  0
 20 33  1  0  0  0  0
M  END
> <BIOSOLVEIT.HYDE_ESTIMATED_AFFINITY_LOWER_BOUNDARY [nM]>
4594695.863115

> <BIOSOLVEIT.HYDE_ESTIMATED_AFFINITY_UPPER_BOUNDARY [nM]>
456510199.992325

> <BIOSOLVEIT.HYDE_LIGAND_EFFICIENCY range: ++, +, 0, -, -->
--

> <BIOSOLVEIT.HYDE_LIGAND_LIPOPHILIC_EFFICIENCY range: ++, +, 0, -, -->
--

> <BIOSOLVEIT.INTER_CLASH range: red, yellow, green>
green

> <BIOSOLVEIT.INTRA_CLASH range: red, yellow, green>
green

> <BIOSOLVEIT.LOGP>
3.0364

> <BIOSOLVEIT.MOLECULAR WEIGHT>
272.278

> <BIOSOLVEIT.MOLECULE_CHECKSUM>
LTcuNjQzODY7MC4zODIxOTM=

> <BIOSOLVEIT.TORSION_QUALITY range: red, yellow, green, not rotatable>
green

> <BIOSOLVEIT.TPSA>
58.2

$$$$
Z279577954.****
b8Hydescor01032215413D 1   1.00000     0.00000     0
Hydescorer 1.1.2 b8048283
 33 34  0  0  0  0            999 V2000
   13.5211  -39.0449  -12.7467 C   0  0  0  0  0  0  0  0  0  0  0  0
   14.3307  -38.9525  -11.6218 C   0  0  0  0  0  0  0  0  0  0  0  0
   14.6769  -37.6922  -11.1400 C   0  0  0  0  0  0  0  0  0  0  0  0
   14.1916  -36.5502  -11.7917 C   0  0  0  0  0  0  0  0  0  0  0  0
   13.3849  -36.6421  -12.9280 C   0  0  0  0  0  0  0  0  0  0  0  0
   13.0520  -37.9078  -13.4177 C   0  0  0  0  0  0  0  0  0  0  0  0
   12.2285  -38.1096  -14.5672 N   0  0  0  0  0  0  0  0  0  0  0  0
   10.8947  -37.8480  -14.7269 C   0  0  0  0  0  0  0  0  0  0  0  0
   10.3154  -38.1765  -16.0750 C   0  0  0  0  0  0  0  0  0  0  0  0
   10.2309  -37.3628  -13.8401 O   0  0  0  0  0  0  0  0  0  0  0  0
   13.1823  -40.2744  -13.1977 F   0  0  0  0  0  0  0  0  0  0  0  0
   14.5238  -35.2624  -11.3243 N   0  0  0  0  0  0  0  0  0  0  0  0
   15.4996  -34.4256  -11.7971 C   0  0  0  0  0  0  0  0  0  0  0  0
   15.7540  -33.0984  -11.2253 C   0  0  0  0  0  0  0  0  0  0  0  0
   16.1321  -34.8842  -12.7347 O   0  0  0  0  0  0  0  0  0  0  0  0
   16.1371  -32.9830   -9.8817 C   0  0  0  0  0  0  0  0  0  0  0  0
   16.3728  -31.7354   -9.3160 C   0  0  0  0  0  0  0  0  0  0  0  0
   16.2381  -30.5841  -10.0869 C   0  0  0  0  0  0  0  0  0  0  0  0
   15.8728  -30.6829  -11.4262 C   0  0  0  0  0  0  0  0  0  0  0  0
   15.6377  -31.9298  -11.9939 C   0  0  0  0  0  0  0  0  0  0  0  0
   14.6601  -39.7785  -11.1645 H   0  0  0  0  0  0  0  0  0  0  0  0
   15.2660  -37.6031  -10.3368 H   0  0  0  0  0  0  0  0  0  0  0  0
   13.0513  -35.8166  -13.3832 H   0  0  0  0  0  0  0  0  0  0  0  0
   12.6904  -38.4955  -15.3658 H   0  0  0  0  0  0  0  0  0  0  0  0
    9.3419  -37.9483  -16.0840 H   0  0  0  0  0  0  0  0  0  0  0  0
   10.7884  -37.6469  -16.7791 H   0  0  0  0  0  0  0  0  0  0  0  0
   10.4307  -39.1527  -16.2584 H   0  0  0  0  0  0  0  0  0  0  0  0
   13.9829  -34.9192  -10.5564 H   0  0  0  0  0  0  0  0  0  0  0  0
   16.2418  -33.8068   -9.3246 H   0  0  0  0  0  0  0  0  0  0  0  0
   16.6394  -31.6649   -8.3548 H   0  0  0  0  0  0  0  0  0  0  0  0
   16.4037  -29.6865   -9.6785 H   0  0  0  0  0  0  0  0  0  0  0  0
   15.7794  -29.8560  -11.9808 H   0  0  0  0  0  0  0  0  0  0  0  0
   15.3835  -31.9948  -12.9589 H   0  0  0  0  0  0  0  0  0  0  0  0
  1  2  2  0  0  0  0
  1  6  1  0  0  0  0
  1 11  1  0  0  0  0
  2  3  1  0  0  0  0
  2 21  1  0  0  0  0
  3  4  2  0  0  0  0
  3 22  1  0  0  0  0
  4  5  1  0  0  0  0
  4 12  1  0  0  0  0
  5  6  2  0  0  0  0
  5 23  1  0  0  0  0
  6  7  1  0  0  0  0
  7  8  1  0  0  0  0
  7 24  1  0  0  0  0
  8  9  1  0  0  0  0
  8 10  2  0  0  0  0
  9 25  1  0  0  0  0
  9 26  1  0  0  0  0
  9 27  1  0  0  0  0
 12 13  1  0  0  0  0
 12 28  1  0  0  0  0
 13 14  1  0  0  0  0
 13 15  2  0  0  0  0
 14 16  2  0  0  0  0
 14 20  1  0  0  0  0
 16 17  1  0  0  0  0
 16 29  1  0  0  0  0
 17 18  2  0  0  0  0
 17 30  1  0  0  0  0
 18 19  1  0  0  0  0
 18 31  1  0  0  0  0
 19 20  2  0  0  0  0
 19 32  1  0  0  0  0
 20 33  1  0  0  0  0
M  END
> <BIOSOLVEIT.HYDE_ESTIMATED_AFFINITY_LOWER_BOUNDARY [nM]>
10489322.821391

> <BIOSOLVEIT.HYDE_ESTIMATED_AFFINITY_UPPER_BOUNDARY [nM]>
1042176240.089854

> <BIOSOLVEIT.HYDE_LIGAND_EFFICIENCY range: ++, +, 0, -, -->
--

> <BIOSOLVEIT.HYDE_LIGAND_LIPOPHILIC_EFFICIENCY range: ++, +, 0, -, -->
--

> <BIOSOLVEIT.INTER_CLASH range: red, yellow, green>
green

> <BIOSOLVEIT.INTRA_CLASH range: red, yellow, green>
green

> <BIOSOLVEIT.LOGP>
3.0364

> <BIOSOLVEIT.MOLECULAR WEIGHT>
272.278

> <BIOSOLVEIT.MOLECULE_CHECKSUM>
LTUuNTk3NTk7MC4yNzk4OA==

> <BIOSOLVEIT.TORSION_QUALITY range: red, yellow, green, not rotatable>
red

> <BIOSOLVEIT.TPSA>
58.2

$$$$
Z279577954.****
b8Hydescor01032215413D 1   1.00000     0.00000     0
Hydescorer 1.1.2 b8048283
 33 34  0  0  0  0            999 V2000
   14.9226  -33.7845   -9.5691 C   0  0  0  0  0  0  0  0  0  0  0  0
   14.4857  -35.0978   -9.6887 C   0  0  0  0  0  0  0  0  0  0  0  0
   15.4017  -36.0850  -10.0444 C   0  0  0  0  0  0  0  0  0  0  0  0
   16.7412  -35.7337  -10.2608 C   0  0  0  0  0  0  0  0  0  0  0  0
   17.1794  -34.4124  -10.1498 C   0  0  0  0  0  0  0  0  0  0  0  0
   16.2549  -33.4222   -9.8076 C   0  0  0  0  0  0  0  0  0  0  0  0
   16.6028  -32.0445   -9.6618 N   0  0  0  0  0  0  0  0  0  0  0  0
   16.6896  -31.0726  -10.6216 C   0  0  0  0  0  0  0  0  0  0  0  0
   17.0853  -29.7043  -10.1401 C   0  0  0  0  0  0  0  0  0  0  0  0
   16.4422  -31.3017  -11.7830 O   0  0  0  0  0  0  0  0  0  0  0  0
   14.0258  -32.8369   -9.2115 F   0  0  0  0  0  0  0  0  0  0  0  0
   17.6901  -36.7128  -10.6194 N   0  0  0  0  0  0  0  0  0  0  0  0
   17.6373  -37.5832  -11.6754 C   0  0  0  0  0  0  0  0  0  0  0  0
   18.6927  -38.5651  -11.9496 C   0  0  0  0  0  0  0  0  0  0  0  0
   16.6368  -37.4645  -12.3641 O   0  0  0  0  0  0  0  0  0  0  0  0
   18.3475  -39.8518  -12.3860 C   0  0  0  0  0  0  0  0  0  0  0  0
   19.3300  -40.8014  -12.6416 C   0  0  0  0  0  0  0  0  0  0  0  0
   20.6732  -40.4769  -12.4736 C   0  0  0  0  0  0  0  0  0  0  0  0
   21.0328  -39.1991  -12.0552 C   0  0  0  0  0  0  0  0  0  0  0  0
   20.0517  -38.2479  -11.8002 C   0  0  0  0  0  0  0  0  0  0  0  0
   13.5277  -35.3309   -9.5218 H   0  0  0  0  0  0  0  0  0  0  0  0
   15.1064  -37.0352  -10.1445 H   0  0  0  0  0  0  0  0  0  0  0  0
   18.1381  -34.1790  -10.3123 H   0  0  0  0  0  0  0  0  0  0  0  0
   16.8119  -31.7492   -8.7296 H   0  0  0  0  0  0  0  0  0  0  0  0
   17.1186  -29.0745  -10.9162 H   0  0  0  0  0  0  0  0  0  0  0  0
   16.4141  -29.3781   -9.4746 H   0  0  0  0  0  0  0  0  0  0  0  0
   17.9866  -29.7503   -9.7093 H   0  0  0  0  0  0  0  0  0  0  0  0
   18.4975  -36.7795  -10.0332 H   0  0  0  0  0  0  0  0  0  0  0  0
   17.3845  -40.0890  -12.5148 H   0  0  0  0  0  0  0  0  0  0  0  0
   19.0718  -41.7182  -12.9463 H   0  0  0  0  0  0  0  0  0  0  0  0
   21.3796  -41.1615  -12.6533 H   0  0  0  0  0  0  0  0  0  0  0  0
   21.9979  -38.9650  -11.9379 H   0  0  0  0  0  0  0  0  0  0  0  0
   20.3166  -37.3291  -11.5076 H   0  0  0  0  0  0  0  0  0  0  0  0
  1  2  2  0  0  0  0
  1  6  1  0  0  0  0
  1 11  1  0  0  0  0
  2  3  1  0  0  0  0
  2 21  1  0  0  0  0
  3  4  2  0  0  0  0
  3 22  1  0  0  0  0
  4  5  1  0  0  0  0
  4 12  1  0  0  0  0
  5  6  2  0  0  0  0
  5 23  1  0  0  0  0
  6  7  1  0  0  0  0
  7  8  1  0  0  0  0
  7 24  1  0  0  0  0
  8  9  1  0  0  0  0
  8 10  2  0  0  0  0
  9 25  1  0  0  0  0
  9 26  1  0  0  0  0
  9 27  1  0  0  0  0
 12 13  1  0  0  0  0
 12 28  1  0  0  0  0
 13 14  1  0  0  0  0
 13 15  2  0  0  0  0
 14 16  2  0  0  0  0
 14 20  1  0  0  0  0
 16 17  1  0  0  0  0
 16 29  1  0  0  0  0
 17 18  2  0  0  0  0
 17 30  1  0  0  0  0
 18 19  1  0  0  0  0
 18 31  1  0  0  0  0
 19 20  2  0  0  0  0
 19 32  1  0  0  0  0
 20 33  1  0  0  0  0
M  END
> <BIOSOLVEIT.HYDE_ESTIMATED_AFFINITY_LOWER_BOUNDARY [nM]>
7203160.766443

> <BIOSOLVEIT.HYDE_ESTIMATED_AFFINITY_UPPER_BOUNDARY [nM]>
715676610.603041

> <BIOSOLVEIT.HYDE_LIGAND_EFFICIENCY range: ++, +, 0, -, -->
--

> <BIOSOLVEIT.HYDE_LIGAND_LIPOPHILIC_EFFICIENCY range: ++, +, 0, -, -->
--

> <BIOSOLVEIT.INTER_CLASH range: red, yellow, green>
green

> <BIOSOLVEIT.INTRA_CLASH range: red, yellow, green>
green

> <BIOSOLVEIT.LOGP>
3.0364

> <BIOSOLVEIT.MOLECULAR WEIGHT>
272.278

> <BIOSOLVEIT.MOLECULE_CHECKSUM>
LTYuNTI5Mjg7MC4zMjY0NjQ=

> <BIOSOLVEIT.TORSION_QUALITY range: red, yellow, green, not rotatable>
yellow

> <BIOSOLVEIT.TPSA>
58.2

$$$$
Z297324774.****
b8Hydescor01032215413D 1   1.00000     0.00000     0
Hydescorer 1.1.2 b8048283
 36 37  0  0  0  0            999 V2000
   18.7895  -39.6490  -12.0482 C   0  0  0  0  0  0  0  0  0  0  0  0
   18.5498  -40.6714  -12.9570 C   0  0  0  0  0  0  0  0  0  0  0  0
   18.9869  -40.6110  -14.2728 C   0  0  0  0  0  0  0  0  0  0  0  0
   19.6939  -39.4869  -14.6898 C   0  0  0  0  0  0  0  0  0  0  0  0
   19.9492  -38.4499  -13.7910 C   0  0  0  0  0  0  0  0  0  0  0  0
   19.4994  -38.5224  -12.4678 C   0  0  0  0  0  0  0  0  0  0  0  0
   17.8671  -41.7652  -12.5466 F   0  0  0  0  0  0  0  0  0  0  0  0
   19.7736  -37.3846  -11.4951 C   0  0  0  0  0  0  0  0  0  0  0  0
   18.5807  -36.4495  -11.5171 C   0  0  0  0  0  0  0  0  0  0  0  0
   17.9961  -36.1436  -10.3144 N   0  0  0  0  0  0  0  0  0  0  0  0
   18.1275  -36.0208  -12.5563 O   0  0  0  0  0  0  0  0  0  0  0  0
   16.8758  -35.2979  -10.0760 C   0  0  0  0  0  0  0  0  0  0  0  0
   15.6260  -35.8938   -9.8613 C   0  0  0  0  0  0  0  0  0  0  0  0
   14.4834  -35.1363   -9.6296 C   0  0  0  0  0  0  0  0  0  0  0  0
   14.5882  -33.7470   -9.5980 C   0  0  0  0  0  0  0  0  0  0  0  0
   15.8386  -33.1461   -9.7880 C   0  0  0  0  0  0  0  0  0  0  0  0
   16.9885  -33.9066  -10.0264 C   0  0  0  0  0  0  0  0  0  0  0  0
   15.5130  -37.2408   -9.8788 F   0  0  0  0  0  0  0  0  0  0  0  0
   15.8976  -31.7343   -9.7557 N   0  0  0  0  0  0  0  0  0  0  0  0
   16.2237  -30.9223  -10.8060 C   0  0  0  0  0  0  0  0  0  0  0  0
   16.2204  -29.4436  -10.5346 C   0  0  0  0  0  0  0  0  0  0  0  0
   16.5245  -31.3835  -11.8834 O   0  0  0  0  0  0  0  0  0  0  0  0
   18.4584  -39.7187  -11.1072 H   0  0  0  0  0  0  0  0  0  0  0  0
   18.7979  -41.3597  -14.9081 H   0  0  0  0  0  0  0  0  0  0  0  0
   20.0190  -39.4223  -15.6334 H   0  0  0  0  0  0  0  0  0  0  0  0
   20.4593  -37.6457  -14.0963 H   0  0  0  0  0  0  0  0  0  0  0  0
   20.5969  -36.8905  -11.7746 H   0  0  0  0  0  0  0  0  0  0  0  0
   19.9010  -37.7501  -10.5730 H   0  0  0  0  0  0  0  0  0  0  0  0
   18.4070  -36.5661   -9.5066 H   0  0  0  0  0  0  0  0  0  0  0  0
   13.5995  -35.5818   -9.4876 H   0  0  0  0  0  0  0  0  0  0  0  0
   13.7770  -33.1837   -9.4410 H   0  0  0  0  0  0  0  0  0  0  0  0
   17.8746  -33.4624  -10.1588 H   0  0  0  0  0  0  0  0  0  0  0  0
   15.6813  -31.2895   -8.8866 H   0  0  0  0  0  0  0  0  0  0  0  0
   16.4718  -28.9513  -11.3679 H   0  0  0  0  0  0  0  0  0  0  0  0
   15.3069  -29.1603  -10.2428 H   0  0  0  0  0  0  0  0  0  0  0  0
   16.8803  -29.2358   -9.8126 H   0  0  0  0  0  0  0  0  0  0  0  0
  1  2  2  0  0  0  0
  1  6  1  0  0  0  0
  1 23  1  0  0  0  0
  2  3  1  0  0  0  0
  2  7  1  0  0  0  0
  3  4  2  0  0  0  0
  3 24  1  0  0  0  0
  4  5  1  0  0  0  0
  4 25  1  0  0  0  0
  5  6  2  0  0  0  0
  5 26  1  0  0  0  0
  6  8  1  0  0  0  0
  8  9  1  0  0  0  0
  8 27  1  0  0  0  0
  8 28  1  0  0  0  0
  9 10  1  0  0  0  0
  9 11  2  0  0  0  0
 10 12  1  0  0  0  0
 10 29  1  0  0  0  0
 12 13  2  0  0  0  0
 12 17  1  0  0  0  0
 13 14  1  0  0  0  0
 13 18  1  0  0  0  0
 14 15  2  0  0  0  0
 14 30  1  0  0  0  0
 15 16  1  0  0  0  0
 15 31  1  0  0  0  0
 16 17  2  0  0  0  0
 16 19  1  0  0  0  0
 17 32  1  0  0  0  0
 19 20  1  0  0  0  0
 19 33  1  0  0  0  0
 20 21  1  0  0  0  0
 20 22  2  0  0  0  0
 21 34  1  0  0  0  0
 21 35  1  0  0  0  0
 21 36  1  0  0  0  0
M  END
> <BIOSOLVEIT.HYDE_ESTIMATED_AFFINITY_LOWER_BOUNDARY [nM]>
23502581.184283

> <BIOSOLVEIT.HYDE_ESTIMATED_AFFINITY_UPPER_BOUNDARY [nM]>
2335120398.915761

> <BIOSOLVEIT.HYDE_LIGAND_EFFICIENCY range: ++, +, 0, -, -->
--

> <BIOSOLVEIT.HYDE_LIGAND_LIPOPHILIC_EFFICIENCY range: ++, +, 0, -, -->
--

> <BIOSOLVEIT.INTER_CLASH range: red, yellow, green>
green

> <BIOSOLVEIT.INTRA_CLASH range: red, yellow, green>
green

> <BIOSOLVEIT.LOGP>
3.1044

> <BIOSOLVEIT.MOLECULAR WEIGHT>
304.295

> <BIOSOLVEIT.MOLECULE_CHECKSUM>
LTMuNTk3Njk7MC4xNjM1MzE=

> <BIOSOLVEIT.TORSION_QUALITY range: red, yellow, green, not rotatable>
red

> <BIOSOLVEIT.TPSA>
58.2

$$$$
Z297324774.****
b8Hydescor01032215413D 1   1.00000     0.00000     0
Hydescorer 1.1.2 b8048283
 36 37  0  0  0  0            999 V2000
    9.8980  -38.2831  -14.2559 C   0  0  0  0  0  0  0  0  0  0  0  0
    8.5819  -37.8694  -14.0971 C   0  0  0  0  0  0  0  0  0  0  0  0
    8.0585  -37.5223  -12.8594 C   0  0  0  0  0  0  0  0  0  0  0  0
    8.8866  -37.5881  -11.7427 C   0  0  0  0  0  0  0  0  0  0  0  0
   10.2140  -37.9974  -11.8813 C   0  0  0  0  0  0  0  0  0  0  0  0
   10.7278  -38.3478  -13.1350 C   0  0  0  0  0  0  0  0  0  0  0  0
    7.7811  -37.8012  -15.1857 F   0  0  0  0  0  0  0  0  0  0  0  0
   12.1733  -38.8015  -13.2782 C   0  0  0  0  0  0  0  0  0  0  0  0
   13.0700  -37.6493  -12.8702 C   0  0  0  0  0  0  0  0  0  0  0  0
   13.3932  -37.5407  -11.5415 N   0  0  0  0  0  0  0  0  0  0  0  0
   13.4538  -36.8265  -13.6733 O   0  0  0  0  0  0  0  0  0  0  0  0
   14.2105  -36.5561  -10.9173 C   0  0  0  0  0  0  0  0  0  0  0  0
   15.2465  -36.9859  -10.0778 C   0  0  0  0  0  0  0  0  0  0  0  0
   16.0826  -36.0863   -9.4262 C   0  0  0  0  0  0  0  0  0  0  0  0
   15.8911  -34.7201   -9.6243 C   0  0  0  0  0  0  0  0  0  0  0  0
   14.8727  -34.2844  -10.4808 C   0  0  0  0  0  0  0  0  0  0  0  0
   14.0273  -35.1884  -11.1333 C   0  0  0  0  0  0  0  0  0  0  0  0
   15.4494  -38.3087   -9.8857 F   0  0  0  0  0  0  0  0  0  0  0  0
   14.7092  -32.8903  -10.6466 N   0  0  0  0  0  0  0  0  0  0  0  0
   15.6517  -32.0254  -11.1284 C   0  0  0  0  0  0  0  0  0  0  0  0
   15.2503  -30.5794  -11.2161 C   0  0  0  0  0  0  0  0  0  0  0  0
   16.7559  -32.4121  -11.4374 O   0  0  0  0  0  0  0  0  0  0  0  0
   10.2463  -38.5309  -15.1600 H   0  0  0  0  0  0  0  0  0  0  0  0
    7.1059  -37.2310  -12.7718 H   0  0  0  0  0  0  0  0  0  0  0  0
    8.5307  -37.3422  -10.8411 H   0  0  0  0  0  0  0  0  0  0  0  0
   10.8046  -38.0407  -11.0755 H   0  0  0  0  0  0  0  0  0  0  0  0
   12.3569  -39.0541  -14.2282 H   0  0  0  0  0  0  0  0  0  0  0  0
   12.3420  -39.5889  -12.6853 H   0  0  0  0  0  0  0  0  0  0  0  0
   13.0075  -38.2383  -10.9376 H   0  0  0  0  0  0  0  0  0  0  0  0
   16.8106  -36.4146   -8.8243 H   0  0  0  0  0  0  0  0  0  0  0  0
   16.4764  -34.0563   -9.1585 H   0  0  0  0  0  0  0  0  0  0  0  0
   13.3053  -34.8614  -11.7430 H   0  0  0  0  0  0  0  0  0  0  0  0
   13.8247  -32.5019  -10.3883 H   0  0  0  0  0  0  0  0  0  0  0  0
   16.0123  -30.0433  -11.5793 H   0  0  0  0  0  0  0  0  0  0  0  0
   14.4603  -30.4890  -11.8225 H   0  0  0  0  0  0  0  0  0  0  0  0
   15.0112  -30.2439  -10.3049 H   0  0  0  0  0  0  0  0  0  0  0  0
  1  2  2  0  0  0  0
  1  6  1  0  0  0  0
  1 23  1  0  0  0  0
  2  3  1  0  0  0  0
  2  7  1  0  0  0  0
  3  4  2  0  0  0  0
  3 24  1  0  0  0  0
  4  5  1  0  0  0  0
  4 25  1  0  0  0  0
  5  6  2  0  0  0  0
  5 26  1  0  0  0  0
  6  8  1  0  0  0  0
  8  9  1  0  0  0  0
  8 27  1  0  0  0  0
  8 28  1  0  0  0  0
  9 10  1  0  0  0  0
  9 11  2  0  0  0  0
 10 12  1  0  0  0  0
 10 29  1  0  0  0  0
 12 13  2  0  0  0  0
 12 17  1  0  0  0  0
 13 14  1  0  0  0  0
 13 18  1  0  0  0  0
 14 15  2  0  0  0  0
 14 30  1  0  0  0  0
 15 16  1  0  0  0  0
 15 31  1  0  0  0  0
 16 17  2  0  0  0  0
 16 19  1  0  0  0  0
 17 32  1  0  0  0  0
 19 20  1  0  0  0  0
 19 33  1  0  0  0  0
 20 21  1  0  0  0  0
 20 22  2  0  0  0  0
 21 34  1  0  0  0  0
 21 35  1  0  0  0  0
 21 36  1  0  0  0  0
M  END
> <BIOSOLVEIT.HYDE_ESTIMATED_AFFINITY_LOWER_BOUNDARY [nM]>
1372695578.955158

> <BIOSOLVEIT.HYDE_ESTIMATED_AFFINITY_UPPER_BOUNDARY [nM]>
136385421787.768936

> <BIOSOLVEIT.HYDE_LIGAND_EFFICIENCY range: ++, +, 0, -, -->
--

> <BIOSOLVEIT.HYDE_LIGAND_LIPOPHILIC_EFFICIENCY range: ++, +, 0, -, -->
--

> <BIOSOLVEIT.INTER_CLASH range: red, yellow, green>
green

> <BIOSOLVEIT.INTRA_CLASH range: red, yellow, green>
green

> <BIOSOLVEIT.LOGP>
3.1044

> <BIOSOLVEIT.MOLECULAR WEIGHT>
304.295

> <BIOSOLVEIT.MOLECULE_CHECKSUM>
Ni40ODUyNzsw

> <BIOSOLVEIT.TORSION_QUALITY range: red, yellow, green, not rotatable>
green

> <BIOSOLVEIT.TPSA>
58.2

$$$$
Z297324774.****
b8Hydescor01032215413D 1   1.00000     0.00000     0
Hydescorer 1.1.2 b8048283
 36 37  0  0  0  0            999 V2000
   17.5593  -37.6867  -17.5436 C   0  0  0  0  0  0  0  0  0  0  0  0
   17.7447  -39.0619  -17.4925 C   0  0  0  0  0  0  0  0  0  0  0  0
   17.8048  -39.7577  -16.2931 C   0  0  0  0  0  0  0  0  0  0  0  0
   17.6692  -39.0485  -15.1031 C   0  0  0  0  0  0  0  0  0  0  0  0
   17.4780  -37.6660  -15.1325 C   0  0  0  0  0  0  0  0  0  0  0  0
   17.4227  -36.9767  -16.3492 C   0  0  0  0  0  0  0  0  0  0  0  0
   17.8704  -39.7490  -18.6514 F   0  0  0  0  0  0  0  0  0  0  0  0
   17.2224  -35.4684  -16.3742 C   0  0  0  0  0  0  0  0  0  0  0  0
   17.1693  -34.9775  -14.9410 C   0  0  0  0  0  0  0  0  0  0  0  0
   15.9369  -34.9091  -14.3424 N   0  0  0  0  0  0  0  0  0  0  0  0
   18.1666  -34.6153  -14.3551 O   0  0  0  0  0  0  0  0  0  0  0  0
   15.6292  -34.4849  -13.0186 C   0  0  0  0  0  0  0  0  0  0  0  0
   14.9324  -33.2811  -12.8505 C   0  0  0  0  0  0  0  0  0  0  0  0
   14.6019  -32.7957  -11.5902 C   0  0  0  0  0  0  0  0  0  0  0  0
   14.9637  -33.5342  -10.4650 C   0  0  0  0  0  0  0  0  0  0  0  0
   15.6393  -34.7498  -10.6271 C   0  0  0  0  0  0  0  0  0  0  0  0
   15.9771  -35.2373  -11.8943 C   0  0  0  0  0  0  0  0  0  0  0  0
   14.5663  -32.5609  -13.9344 F   0  0  0  0  0  0  0  0  0  0  0  0
   15.9937  -35.4620   -9.4588 N   0  0  0  0  0  0  0  0  0  0  0  0
   17.2000  -36.0589   -9.2199 C   0  0  0  0  0  0  0  0  0  0  0  0
   17.3484  -36.7631   -7.9001 C   0  0  0  0  0  0  0  0  0  0  0  0
   18.0828  -36.0384  -10.0472 O   0  0  0  0  0  0  0  0  0  0  0  0
   17.5241  -37.2118  -18.4229 H   0  0  0  0  0  0  0  0  0  0  0  0
   17.9428  -40.7480  -16.2840 H   0  0  0  0  0  0  0  0  0  0  0  0
   17.7088  -39.5293  -14.2272 H   0  0  0  0  0  0  0  0  0  0  0  0
   17.3794  -37.1624  -14.2742 H   0  0  0  0  0  0  0  0  0  0  0  0
   16.3656  -35.2477  -16.8402 H   0  0  0  0  0  0  0  0  0  0  0  0
   17.9844  -35.0330  -16.8536 H   0  0  0  0  0  0  0  0  0  0  0  0
   15.1597  -35.1917  -14.9045 H   0  0  0  0  0  0  0  0  0  0  0  0
   14.1118  -31.9295  -11.4926 H   0  0  0  0  0  0  0  0  0  0  0  0
   14.7427  -33.1985   -9.5493 H   0  0  0  0  0  0  0  0  0  0  0  0
   16.4585  -36.1081  -11.9933 H   0  0  0  0  0  0  0  0  0  0  0  0
   15.2996  -35.5358   -8.7427 H   0  0  0  0  0  0  0  0  0  0  0  0
   18.2641  -37.1595   -7.8349 H   0  0  0  0  0  0  0  0  0  0  0  0
   17.2149  -36.1083   -7.1561 H   0  0  0  0  0  0  0  0  0  0  0  0
   16.6649  -37.4898   -7.8313 H   0  0  0  0  0  0  0  0  0  0  0  0
  1  2  2  0  0  0  0
  1  6  1  0  0  0  0
  1 23  1  0  0  0  0
  2  3  1  0  0  0  0
  2  7  1  0  0  0  0
  3  4  2  0  0  0  0
  3 24  1  0  0  0  0
  4  5  1  0  0  0  0
  4 25  1  0  0  0  0
  5  6  2  0  0  0  0
  5 26  1  0  0  0  0
  6  8  1  0  0  0  0
  8  9  1  0  0  0  0
  8 27  1  0  0  0  0
  8 28  1  0  0  0  0
  9 10  1  0  0  0  0
  9 11  2  0  0  0  0
 10 12  1  0  0  0  0
 10 29  1  0  0  0  0
 12 13  2  0  0  0  0
 12 17  1  0  0  0  0
 13 14  1  0  0  0  0
 13 18  1  0  0  0  0
 14 15  2  0  0  0  0
 14 30  1  0  0  0  0
 15 16  1  0  0  0  0
 15 31  1  0  0  0  0
 16 17  2  0  0  0  0
 16 19  1  0  0  0  0
 17 32  1  0  0  0  0
 19 20  1  0  0  0  0
 19 33  1  0  0  0  0
 20 21  1  0  0  0  0
 20 22  2  0  0  0  0
 21 34  1  0  0  0  0
 21 35  1  0  0  0  0
 21 36  1  0  0  0  0
M  END
> <BIOSOLVEIT.HYDE_ESTIMATED_AFFINITY_LOWER_BOUNDARY [nM]>
5392675515397.574219

> <BIOSOLVEIT.HYDE_ESTIMATED_AFFINITY_UPPER_BOUNDARY [nM]>
535794196475735.750000

> <BIOSOLVEIT.HYDE_LIGAND_EFFICIENCY range: ++, +, 0, -, -->
--

> <BIOSOLVEIT.HYDE_LIGAND_LIPOPHILIC_EFFICIENCY range: ++, +, 0, -, -->
--

> <BIOSOLVEIT.INTER_CLASH range: red, yellow, green>
green

> <BIOSOLVEIT.INTRA_CLASH range: red, yellow, green>
green

> <BIOSOLVEIT.LOGP>
3.1044

> <BIOSOLVEIT.MOLECULAR WEIGHT>
304.295

> <BIOSOLVEIT.MOLECULE_CHECKSUM>
MjcuMDAxMjsw

> <BIOSOLVEIT.TORSION_QUALITY range: red, yellow, green, not rotatable>
yellow

> <BIOSOLVEIT.TPSA>
58.2

$$$$
Z297324774.****
b8Hydescor01032215413D 1   1.00000     0.00000     0
Hydescorer 1.1.2 b8048283
 36 37  0  0  0  0            999 V2000
   16.1440  -43.4707  -15.8343 C   0  0  0  0  0  0  0  0  0  0  0  0
   15.9748  -43.8356  -17.1634 C   0  0  0  0  0  0  0  0  0  0  0  0
   16.9216  -44.5789  -17.8543 C   0  0  0  0  0  0  0  0  0  0  0  0
   18.0768  -44.9739  -17.1860 C   0  0  0  0  0  0  0  0  0  0  0  0
   18.2646  -44.6211  -15.8485 C   0  0  0  0  0  0  0  0  0  0  0  0
   17.3030  -43.8683  -15.1650 C   0  0  0  0  0  0  0  0  0  0  0  0
   14.8479  -43.4547  -17.8085 F   0  0  0  0  0  0  0  0  0  0  0  0
   17.5175  -43.4797  -13.7094 C   0  0  0  0  0  0  0  0  0  0  0  0
   18.2473  -42.1514  -13.6802 C   0  0  0  0  0  0  0  0  0  0  0  0
   18.5196  -41.6077  -12.4505 N   0  0  0  0  0  0  0  0  0  0  0  0
   18.5421  -41.5648  -14.6991 O   0  0  0  0  0  0  0  0  0  0  0  0
   19.1867  -40.3830  -12.1635 C   0  0  0  0  0  0  0  0  0  0  0  0
   20.5042  -40.4380  -11.6899 C   0  0  0  0  0  0  0  0  0  0  0  0
   21.2199  -39.2870  -11.3800 C   0  0  0  0  0  0  0  0  0  0  0  0
   20.6129  -38.0451  -11.5573 C   0  0  0  0  0  0  0  0  0  0  0  0
   19.3048  -37.9824  -12.0527 C   0  0  0  0  0  0  0  0  0  0  0  0
   18.5814  -39.1398  -12.3605 C   0  0  0  0  0  0  0  0  0  0  0  0
   21.1080  -41.6361  -11.5238 F   0  0  0  0  0  0  0  0  0  0  0  0
   18.7255  -36.7027  -12.2097 N   0  0  0  0  0  0  0  0  0  0  0  0
   18.5954  -36.0217  -13.3878 C   0  0  0  0  0  0  0  0  0  0  0  0
   17.9436  -34.6693  -13.3105 C   0  0  0  0  0  0  0  0  0  0  0  0
   19.0130  -36.4823  -14.4260 O   0  0  0  0  0  0  0  0  0  0  0  0
   15.4460  -42.9312  -15.3635 H   0  0  0  0  0  0  0  0  0  0  0  0
   16.7767  -44.8256  -18.8125 H   0  0  0  0  0  0  0  0  0  0  0  0
   18.7723  -45.5104  -17.6640 H   0  0  0  0  0  0  0  0  0  0  0  0
   19.0959  -44.9096  -15.3733 H   0  0  0  0  0  0  0  0  0  0  0  0
   18.0658  -44.1780  -13.2492 H   0  0  0  0  0  0  0  0  0  0  0  0
   16.6346  -43.3918  -13.2482 H   0  0  0  0  0  0  0  0  0  0  0  0
   18.2119  -42.1359  -11.6590 H   0  0  0  0  0  0  0  0  0  0  0  0
   22.1564  -39.3494  -11.0349 H   0  0  0  0  0  0  0  0  0  0  0  0
   21.1075  -37.2056  -11.3325 H   0  0  0  0  0  0  0  0  0  0  0  0
   17.6483  -39.0781  -12.7148 H   0  0  0  0  0  0  0  0  0  0  0  0
   18.3797  -36.2554  -11.3849 H   0  0  0  0  0  0  0  0  0  0  0  0
   17.9021  -34.2665  -14.2248 H   0  0  0  0  0  0  0  0  0  0  0  0
   17.0172  -34.7661  -12.9466 H   0  0  0  0  0  0  0  0  0  0  0  0
   18.4779  -34.0757  -12.7087 H   0  0  0  0  0  0  0  0  0  0  0  0
  1  2  2  0  0  0  0
  1  6  1  0  0  0  0
  1 23  1  0  0  0  0
  2  3  1  0  0  0  0
  2  7  1  0  0  0  0
  3  4  2  0  0  0  0
  3 24  1  0  0  0  0
  4  5  1  0  0  0  0
  4 25  1  0  0  0  0
  5  6  2  0  0  0  0
  5 26  1  0  0  0  0
  6  8  1  0  0  0  0
  8  9  1  0  0  0  0
  8 27  1  0  0  0  0
  8 28  1  0  0  0  0
  9 10  1  0  0  0  0
  9 11  2  0  0  0  0
 10 12  1  0  0  0  0
 10 29  1  0  0  0  0
 12 13  2  0  0  0  0
 12 17  1  0  0  0  0
 13 14  1  0  0  0  0
 13 18  1  0  0  0  0
 14 15  2  0  0  0  0
 14 30  1  0  0  0  0
 15 16  1  0  0  0  0
 15 31  1  0  0  0  0
 16 17  2  0  0  0  0
 16 19  1  0  0  0  0
 17 32  1  0  0  0  0
 19 20  1  0  0  0  0
 19 33  1  0  0  0  0
 20 21  1  0  0  0  0
 20 22  2  0  0  0  0
 21 34  1  0  0  0  0
 21 35  1  0  0  0  0
 21 36  1  0  0  0  0
M  END
> <BIOSOLVEIT.HYDE_ESTIMATED_AFFINITY_LOWER_BOUNDARY [nM]>
26815090.945066

> <BIOSOLVEIT.HYDE_ESTIMATED_AFFINITY_UPPER_BOUNDARY [nM]>
2664237828.757283

> <BIOSOLVEIT.HYDE_LIGAND_EFFICIENCY range: ++, +, 0, -, -->
--

> <BIOSOLVEIT.HYDE_LIGAND_LIPOPHILIC_EFFICIENCY range: ++, +, 0, -, -->
--

> <BIOSOLVEIT.INTER_CLASH range: red, yellow, green>
green

> <BIOSOLVEIT.INTRA_CLASH range: red, yellow, green>
green

> <BIOSOLVEIT.LOGP>
3.1044

> <BIOSOLVEIT.MOLECULAR WEIGHT>
304.295

> <BIOSOLVEIT.MOLECULE_CHECKSUM>
LTMuMjcwODM7MC4xNDg2NzQ=

> <BIOSOLVEIT.TORSION_QUALITY range: red, yellow, green, not rotatable>
yellow

> <BIOSOLVEIT.TPSA>
58.2

$$$$
Z297320586.****
b8Hydescor01032215413D 1   1.00000     0.00000     0
Hydescorer 1.1.2 b8048283
 33 34  0  0  0  0            999 V2000
   20.4457  -40.3097  -11.6325 C   0  0  0  0  0  0  0  0  0  0  0  0
   19.8167  -41.5222  -11.8829 C   0  0  0  0  0  0  0  0  0  0  0  0
   18.5224  -41.5100  -12.3955 C   0  0  0  0  0  0  0  0  0  0  0  0
   17.8822  -40.2955  -12.6418 C   0  0  0  0  0  0  0  0  0  0  0  0
   18.5224  -39.0683  -12.3724 C   0  0  0  0  0  0  0  0  0  0  0  0
   19.8299  -39.0906  -11.8685 C   0  0  0  0  0  0  0  0  0  0  0  0
   21.7042  -40.3206  -11.1397 F   0  0  0  0  0  0  0  0  0  0  0  0
   17.8588  -37.7836  -12.6118 C   0  0  0  0  0  0  0  0  0  0  0  0
   18.3862  -36.8680  -13.2295 O   0  0  0  0  0  0  0  0  0  0  0  0
   16.6042  -37.5845  -12.0743 N   0  0  0  0  0  0  0  0  0  0  0  0
   15.7971  -36.4185  -12.1894 C   0  0  0  0  0  0  0  0  0  0  0  0
   14.8334  -36.3634  -13.2042 C   0  0  0  0  0  0  0  0  0  0  0  0
   14.0123  -35.2556  -13.3741 C   0  0  0  0  0  0  0  0  0  0  0  0
   14.1616  -34.1650  -12.5187 C   0  0  0  0  0  0  0  0  0  0  0  0
   15.1401  -34.2046  -11.5179 C   0  0  0  0  0  0  0  0  0  0  0  0
   15.9608  -35.3228  -11.3398 C   0  0  0  0  0  0  0  0  0  0  0  0
   14.6918  -37.4084  -14.0512 F   0  0  0  0  0  0  0  0  0  0  0  0
   15.2560  -33.0800  -10.6690 N   0  0  0  0  0  0  0  0  0  0  0  0
   16.1857  -32.0847  -10.7847 C   0  0  0  0  0  0  0  0  0  0  0  0
   16.9980  -32.0873  -11.6837 O   0  0  0  0  0  0  0  0  0  0  0  0
   16.1175  -30.9836   -9.7631 C   0  0  0  0  0  0  0  0  0  0  0  0
   20.2841  -42.3869  -11.6987 H   0  0  0  0  0  0  0  0  0  0  0  0
   18.0521  -42.3714  -12.5869 H   0  0  0  0  0  0  0  0  0  0  0  0
   16.9546  -40.2952  -13.0153 H   0  0  0  0  0  0  0  0  0  0  0  0
   20.3136  -38.2356  -11.6810 H   0  0  0  0  0  0  0  0  0  0  0  0
   16.2202  -38.3420  -11.5464 H   0  0  0  0  0  0  0  0  0  0  0  0
   13.3241  -35.2408  -14.0995 H   0  0  0  0  0  0  0  0  0  0  0  0
   13.5750  -33.3613  -12.6190 H   0  0  0  0  0  0  0  0  0  0  0  0
   16.6521  -35.3374  -10.6173 H   0  0  0  0  0  0  0  0  0  0  0  0
   14.6002  -33.0063   -9.9177 H   0  0  0  0  0  0  0  0  0  0  0  0
   16.8395  -30.3158   -9.9439 H   0  0  0  0  0  0  0  0  0  0  0  0
   15.2261  -30.5335   -9.8171 H   0  0  0  0  0  0  0  0  0  0  0  0
   16.2413  -31.3691   -8.8488 H   0  0  0  0  0  0  0  0  0  0  0  0
  1  2  2  0  0  0  0
  1  6  1  0  0  0  0
  1  7  1  0  0  0  0
  2  3  1  0  0  0  0
  2 22  1  0  0  0  0
  3  4  2  0  0  0  0
  3 23  1  0  0  0  0
  4  5  1  0  0  0  0
  4 24  1  0  0  0  0
  5  6  2  0  0  0  0
  5  8  1  0  0  0  0
  6 25  1  0  0  0  0
  8  9  2  0  0  0  0
  8 10  1  0  0  0  0
 10 11  1  0  0  0  0
 10 26  1  0  0  0  0
 11 12  2  0  0  0  0
 11 16  1  0  0  0  0
 12 13  1  0  0  0  0
 12 17  1  0  0  0  0
 13 14  2  0  0  0  0
 13 27  1  0  0  0  0
 14 15  1  0  0  0  0
 14 28  1  0  0  0  0
 15 16  2  0  0  0  0
 15 18  1  0  0  0  0
 16 29  1  0  0  0  0
 18 19  1  0  0  0  0
 18 30  1  0  0  0  0
 19 20  2  0  0  0  0
 19 21  1  0  0  0  0
 21 31  1  0  0  0  0
 21 32  1  0  0  0  0
 21 33  1  0  0  0  0
M  END
> <BIOSOLVEIT.HYDE_ESTIMATED_AFFINITY_LOWER_BOUNDARY [nM]>
134433962.593634

> <BIOSOLVEIT.HYDE_ESTIMATED_AFFINITY_UPPER_BOUNDARY [nM]>
13356809020.168711

> <BIOSOLVEIT.HYDE_LIGAND_EFFICIENCY range: ++, +, 0, -, -->
--

> <BIOSOLVEIT.HYDE_LIGAND_LIPOPHILIC_EFFICIENCY range: ++, +, 0, -, -->
--

> <BIOSOLVEIT.INTER_CLASH range: red, yellow, green>
green

> <BIOSOLVEIT.INTRA_CLASH range: red, yellow, green>
green

> <BIOSOLVEIT.LOGP>
3.1755

> <BIOSOLVEIT.MOLECULAR WEIGHT>
290.268

> <BIOSOLVEIT.MOLECULE_CHECKSUM>
MC43MjU1MjE7MA==

> <BIOSOLVEIT.TORSION_QUALITY range: red, yellow, green, not rotatable>
red

> <BIOSOLVEIT.TPSA>
58.2

$$$$
Z297320586.****
b8Hydescor01032215413D 1   1.00000     0.00000     0
Hydescorer 1.1.2 b8048283
 33 34  0  0  0  0            999 V2000
   16.2479  -32.6400   -9.9808 C   0  0  0  0  0  0  0  0  0  0  0  0
   15.7516  -31.5633  -10.7038 C   0  0  0  0  0  0  0  0  0  0  0  0
   15.0723  -31.8132  -11.8928 C   0  0  0  0  0  0  0  0  0  0  0  0
   14.9066  -33.1246  -12.3380 C   0  0  0  0  0  0  0  0  0  0  0  0
   15.4250  -34.2123  -11.6052 C   0  0  0  0  0  0  0  0  0  0  0  0
   16.0964  -33.9515  -10.4029 C   0  0  0  0  0  0  0  0  0  0  0  0
   16.9032  -32.3985   -8.8236 F   0  0  0  0  0  0  0  0  0  0  0  0
   15.2724  -35.5951  -12.0657 C   0  0  0  0  0  0  0  0  0  0  0  0
   15.9204  -36.0623  -12.9932 O   0  0  0  0  0  0  0  0  0  0  0  0
   14.3216  -36.3871  -11.4564 N   0  0  0  0  0  0  0  0  0  0  0  0
   14.0181  -37.7451  -11.7534 C   0  0  0  0  0  0  0  0  0  0  0  0
   12.7846  -38.0462  -12.3445 C   0  0  0  0  0  0  0  0  0  0  0  0
   12.4235  -39.3501  -12.6601 C   0  0  0  0  0  0  0  0  0  0  0  0
   13.3084  -40.3870  -12.3682 C   0  0  0  0  0  0  0  0  0  0  0  0
   14.5325  -40.0944  -11.7547 C   0  0  0  0  0  0  0  0  0  0  0  0
   14.9013  -38.7814  -11.4451 C   0  0  0  0  0  0  0  0  0  0  0  0
   11.9108  -37.0501  -12.6159 F   0  0  0  0  0  0  0  0  0  0  0  0
   15.4030  -41.1739  -11.4795 N   0  0  0  0  0  0  0  0  0  0  0  0
   16.3590  -41.6642  -12.3245 C   0  0  0  0  0  0  0  0  0  0  0  0
   16.5505  -41.1646  -13.4115 O   0  0  0  0  0  0  0  0  0  0  0  0
   17.1704  -42.8233  -11.8158 C   0  0  0  0  0  0  0  0  0  0  0  0
   15.8797  -30.6269  -10.3768 H   0  0  0  0  0  0  0  0  0  0  0  0
   14.7034  -31.0529  -12.4275 H   0  0  0  0  0  0  0  0  0  0  0  0
   14.4124  -33.2963  -13.1902 H   0  0  0  0  0  0  0  0  0  0  0  0
   16.4625  -34.7039   -9.8552 H   0  0  0  0  0  0  0  0  0  0  0  0
   13.7875  -35.9605  -10.7265 H   0  0  0  0  0  0  0  0  0  0  0  0
   11.5415  -39.5420  -13.0905 H   0  0  0  0  0  0  0  0  0  0  0  0
   13.0710  -41.3316  -12.5951 H   0  0  0  0  0  0  0  0  0  0  0  0
   15.7813  -38.5885  -11.0110 H   0  0  0  0  0  0  0  0  0  0  0  0
   15.3112  -41.6179  -10.5882 H   0  0  0  0  0  0  0  0  0  0  0  0
   17.8338  -43.0969  -12.5122 H   0  0  0  0  0  0  0  0  0  0  0  0
   17.6536  -42.5521  -10.9833 H   0  0  0  0  0  0  0  0  0  0  0  0
   16.5633  -43.5919  -11.6135 H   0  0  0  0  0  0  0  0  0  0  0  0
  1  2  2  0  0  0  0
  1  6  1  0  0  0  0
  1  7  1  0  0  0  0
  2  3  1  0  0  0  0
  2 22  1  0  0  0  0
  3  4  2  0  0  0  0
  3 23  1  0  0  0  0
  4  5  1  0  0  0  0
  4 24  1  0  0  0  0
  5  6  2  0  0  0  0
  5  8  1  0  0  0  0
  6 25  1  0  0  0  0
  8  9  2  0  0  0  0
  8 10  1  0  0  0  0
 10 11  1  0  0  0  0
 10 26  1  0  0  0  0
 11 12  2  0  0  0  0
 11 16  1  0  0  0  0
 12 13  1  0  0  0  0
 12 17  1  0  0  0  0
 13 14  2  0  0  0  0
 13 27  1  0  0  0  0
 14 15  1  0  0  0  0
 14 28  1  0  0  0  0
 15 16  2  0  0  0  0
 15 18  1  0  0  0  0
 16 29  1  0  0  0  0
 18 19  1  0  0  0  0
 18 30  1  0  0  0  0
 19 20  2  0  0  0  0
 19 21  1  0  0  0  0
 21 31  1  0  0  0  0
 21 32  1  0  0  0  0
 21 33  1  0  0  0  0
M  END
> <BIOSOLVEIT.HYDE_ESTIMATED_AFFINITY_LOWER_BOUNDARY [nM]>
53943309.645325

> <BIOSOLVEIT.HYDE_ESTIMATED_AFFINITY_UPPER_BOUNDARY [nM]>
5359586751.350763

> <BIOSOLVEIT.HYDE_LIGAND_EFFICIENCY range: ++, +, 0, -, -->
--

> <BIOSOLVEIT.HYDE_LIGAND_LIPOPHILIC_EFFICIENCY range: ++, +, 0, -, -->
--

> <BIOSOLVEIT.INTER_CLASH range: red, yellow, green>
green

> <BIOSOLVEIT.INTRA_CLASH range: red, yellow, green>
green

> <BIOSOLVEIT.LOGP>
3.1755

> <BIOSOLVEIT.MOLECULAR WEIGHT>
290.268

> <BIOSOLVEIT.MOLECULE_CHECKSUM>
LTEuNTM4MTE7MC4wNzMyNDM0

> <BIOSOLVEIT.TORSION_QUALITY range: red, yellow, green, not rotatable>
red

> <BIOSOLVEIT.TPSA>
58.2

$$$$
Z297320586.****
b8Hydescor01032215413D 1   1.00000     0.00000     0
Hydescorer 1.1.2 b8048283
 33 34  0  0  0  0            999 V2000
   16.0148  -31.1256  -11.2501 C   0  0  0  0  0  0  0  0  0  0  0  0
   16.4083  -31.0959   -9.9186 C   0  0  0  0  0  0  0  0  0  0  0  0
   16.4552  -32.2925   -9.2089 C   0  0  0  0  0  0  0  0  0  0  0  0
   16.1052  -33.4883   -9.8360 C   0  0  0  0  0  0  0  0  0  0  0  0
   15.6936  -33.5089  -11.1846 C   0  0  0  0  0  0  0  0  0  0  0  0
   15.6618  -32.3010  -11.8944 C   0  0  0  0  0  0  0  0  0  0  0  0
   15.9741  -29.9648  -11.9413 F   0  0  0  0  0  0  0  0  0  0  0  0
   15.3087  -34.7543  -11.8544 C   0  0  0  0  0  0  0  0  0  0  0  0
   15.7790  -35.1041  -12.9290 O   0  0  0  0  0  0  0  0  0  0  0  0
   14.3382  -35.5400  -11.2684 N   0  0  0  0  0  0  0  0  0  0  0  0
   13.8267  -36.7759  -11.7536 C   0  0  0  0  0  0  0  0  0  0  0  0
   14.4742  -37.9629  -11.3886 C   0  0  0  0  0  0  0  0  0  0  0  0
   14.0289  -39.2039  -11.8270 C   0  0  0  0  0  0  0  0  0  0  0  0
   12.9152  -39.2666  -12.6632 C   0  0  0  0  0  0  0  0  0  0  0  0
   12.2788  -38.0812  -13.0512 C   0  0  0  0  0  0  0  0  0  0  0  0
   12.7201  -36.8322  -12.6029 C   0  0  0  0  0  0  0  0  0  0  0  0
   15.5664  -37.9129  -10.5923 F   0  0  0  0  0  0  0  0  0  0  0  0
   11.1504  -38.1888  -13.8962 N   0  0  0  0  0  0  0  0  0  0  0  0
   11.1803  -38.2912  -15.2589 C   0  0  0  0  0  0  0  0  0  0  0  0
   12.2306  -38.3236  -15.8621 O   0  0  0  0  0  0  0  0  0  0  0  0
    9.8496  -38.3950  -15.9512 C   0  0  0  0  0  0  0  0  0  0  0  0
   16.6532  -30.2320   -9.4784 H   0  0  0  0  0  0  0  0  0  0  0  0
   16.7396  -32.2948   -8.2503 H   0  0  0  0  0  0  0  0  0  0  0  0
   16.1468  -34.3446   -9.3210 H   0  0  0  0  0  0  0  0  0  0  0  0
   15.3872  -32.2871  -12.8559 H   0  0  0  0  0  0  0  0  0  0  0  0
   13.9520  -35.2045  -10.4092 H   0  0  0  0  0  0  0  0  0  0  0  0
   14.5004  -40.0400  -11.5467 H   0  0  0  0  0  0  0  0  0  0  0  0
   12.5737  -40.1503  -12.9830 H   0  0  0  0  0  0  0  0  0  0  0  0
   12.2519  -35.9951  -12.8855 H   0  0  0  0  0  0  0  0  0  0  0  0
   10.2513  -38.1900  -13.4585 H   0  0  0  0  0  0  0  0  0  0  0  0
    9.9919  -38.4646  -16.9385 H   0  0  0  0  0  0  0  0  0  0  0  0
    9.3671  -39.2082  -15.6258 H   0  0  0  0  0  0  0  0  0  0  0  0
    9.3046  -37.5811  -15.7496 H   0  0  0  0  0  0  0  0  0  0  0  0
  1  2  2  0  0  0  0
  1  6  1  0  0  0  0
  1  7  1  0  0  0  0
  2  3  1  0  0  0  0
  2 22  1  0  0  0  0
  3  4  2  0  0  0  0
  3 23  1  0  0  0  0
  4  5  1  0  0  0  0
  4 24  1  0  0  0  0
  5  6  2  0  0  0  0
  5  8  1  0  0  0  0
  6 25  1  0  0  0  0
  8  9  2  0  0  0  0
  8 10  1  0  0  0  0
 10 11  1  0  0  0  0
 10 26  1  0  0  0  0
 11 12  2  0  0  0  0
 11 16  1  0  0  0  0
 12 13  1  0  0  0  0
 12 17  1  0  0  0  0
 13 14  2  0  0  0  0
 13 27  1  0  0  0  0
 14 15  1  0  0  0  0
 14 28  1  0  0  0  0
 15 16  2  0  0  0  0
 15 18  1  0  0  0  0
 16 29  1  0  0  0  0
 18 19  1  0  0  0  0
 18 30  1  0  0  0  0
 19 20  2  0  0  0  0
 19 21  1  0  0  0  0
 21 31  1  0  0  0  0
 21 32  1  0  0  0  0
 21 33  1  0  0  0  0
M  END
> <BIOSOLVEIT.HYDE_ESTIMATED_AFFINITY_LOWER_BOUNDARY [nM]>
713112.345706

> <BIOSOLVEIT.HYDE_ESTIMATED_AFFINITY_UPPER_BOUNDARY [nM]>
70851927.799749

> <BIOSOLVEIT.HYDE_LIGAND_EFFICIENCY range: ++, +, 0, -, -->
--

> <BIOSOLVEIT.HYDE_LIGAND_LIPOPHILIC_EFFICIENCY range: ++, +, 0, -, -->
--

> <BIOSOLVEIT.INTER_CLASH range: red, yellow, green>
green

> <BIOSOLVEIT.INTRA_CLASH range: red, yellow, green>
green

> <BIOSOLVEIT.LOGP>
3.1755

> <BIOSOLVEIT.MOLECULAR WEIGHT>
290.268

> <BIOSOLVEIT.MOLECULE_CHECKSUM>
LTEyLjI2MjI7MC41ODM5MTQ=

> <BIOSOLVEIT.TORSION_QUALITY range: red, yellow, green, not rotatable>
yellow

> <BIOSOLVEIT.TPSA>
58.2

$$$$
Z297320586.****
b8Hydescor01032215413D 1   1.00000     0.00000     0
Hydescorer 1.1.2 b8048283
 33 34  0  0  0  0            999 V2000
   19.5135  -39.9452  -12.1266 C   0  0  0  0  0  0  0  0  0  0  0  0
   20.8699  -39.8177  -11.8576 C   0  0  0  0  0  0  0  0  0  0  0  0
   21.3610  -38.5726  -11.4754 C   0  0  0  0  0  0  0  0  0  0  0  0
   20.4956  -37.4834  -11.3748 C   0  0  0  0  0  0  0  0  0  0  0  0
   19.1216  -37.6174  -11.6625 C   0  0  0  0  0  0  0  0  0  0  0  0
   18.6343  -38.8778  -12.0342 C   0  0  0  0  0  0  0  0  0  0  0  0
   19.0349  -41.1550  -12.4927 F   0  0  0  0  0  0  0  0  0  0  0  0
   18.2012  -36.4803  -11.5758 C   0  0  0  0  0  0  0  0  0  0  0  0
   18.0578  -35.6702  -12.4821 O   0  0  0  0  0  0  0  0  0  0  0  0
   17.5035  -36.2907  -10.4010 N   0  0  0  0  0  0  0  0  0  0  0  0
   16.5693  -35.2562  -10.1155 C   0  0  0  0  0  0  0  0  0  0  0  0
   15.2268  -35.5985   -9.9101 C   0  0  0  0  0  0  0  0  0  0  0  0
   14.2621  -34.6391   -9.6284 C   0  0  0  0  0  0  0  0  0  0  0  0
   14.6397  -33.2988   -9.5616 C   0  0  0  0  0  0  0  0  0  0  0  0
   15.9760  -32.9484   -9.7905 C   0  0  0  0  0  0  0  0  0  0  0  0
   16.9497  -33.9139  -10.0647 C   0  0  0  0  0  0  0  0  0  0  0  0
   14.8457  -36.8937   -9.9902 F   0  0  0  0  0  0  0  0  0  0  0  0
   16.3183  -31.5790   -9.7092 N   0  0  0  0  0  0  0  0  0  0  0  0
   16.6091  -30.7646  -10.7677 C   0  0  0  0  0  0  0  0  0  0  0  0
   16.5664  -31.1769  -11.9061 O   0  0  0  0  0  0  0  0  0  0  0  0
   16.9469  -29.3366  -10.4397 C   0  0  0  0  0  0  0  0  0  0  0  0
   21.4816  -40.6048  -11.9367 H   0  0  0  0  0  0  0  0  0  0  0  0
   22.3337  -38.4590  -11.2732 H   0  0  0  0  0  0  0  0  0  0  0  0
   20.8552  -36.5935  -11.0943 H   0  0  0  0  0  0  0  0  0  0  0  0
   17.6622  -39.0056  -12.2307 H   0  0  0  0  0  0  0  0  0  0  0  0
   17.6727  -36.9524   -9.6705 H   0  0  0  0  0  0  0  0  0  0  0  0
   13.3106  -34.9062   -9.4757 H   0  0  0  0  0  0  0  0  0  0  0  0
   13.9622  -32.5938   -9.3520 H   0  0  0  0  0  0  0  0  0  0  0  0
   17.9008  -33.6479  -10.2215 H   0  0  0  0  0  0  0  0  0  0  0  0
   16.3504  -31.1705   -8.7971 H   0  0  0  0  0  0  0  0  0  0  0  0
   17.1406  -28.8375  -11.2843 H   0  0  0  0  0  0  0  0  0  0  0  0
   16.1734  -28.9105   -9.9706 H   0  0  0  0  0  0  0  0  0  0  0  0
   17.7512  -29.3122   -9.8461 H   0  0  0  0  0  0  0  0  0  0  0  0
  1  2  2  0  0  0  0
  1  6  1  0  0  0  0
  1  7  1  0  0  0  0
  2  3  1  0  0  0  0
  2 22  1  0  0  0  0
  3  4  2  0  0  0  0
  3 23  1  0  0  0  0
  4  5  1  0  0  0  0
  4 24  1  0  0  0  0
  5  6  2  0  0  0  0
  5  8  1  0  0  0  0
  6 25  1  0  0  0  0
  8  9  2  0  0  0  0
  8 10  1  0  0  0  0
 10 11  1  0  0  0  0
 10 26  1  0  0  0  0
 11 12  2  0  0  0  0
 11 16  1  0  0  0  0
 12 13  1  0  0  0  0
 12 17  1  0  0  0  0
 13 14  2  0  0  0  0
 13 27  1  0  0  0  0
 14 15  1  0  0  0  0
 14 28  1  0  0  0  0
 15 16  2  0  0  0  0
 15 18  1  0  0  0  0
 16 29  1  0  0  0  0
 18 19  1  0  0  0  0
 18 30  1  0  0  0  0
 19 20  2  0  0  0  0
 19 21  1  0  0  0  0
 21 31  1  0  0  0  0
 21 32  1  0  0  0  0
 21 33  1  0  0  0  0
M  END
> <BIOSOLVEIT.HYDE_ESTIMATED_AFFINITY_LOWER_BOUNDARY [nM]>
44104234.224078

> <BIOSOLVEIT.HYDE_ESTIMATED_AFFINITY_UPPER_BOUNDARY [nM]>
4382016435.032136

> <BIOSOLVEIT.HYDE_LIGAND_EFFICIENCY range: ++, +, 0, -, -->
--

> <BIOSOLVEIT.HYDE_LIGAND_LIPOPHILIC_EFFICIENCY range: ++, +, 0, -, -->
--

> <BIOSOLVEIT.INTER_CLASH range: red, yellow, green>
green

> <BIOSOLVEIT.INTRA_CLASH range: red, yellow, green>
green

> <BIOSOLVEIT.LOGP>
3.1755

> <BIOSOLVEIT.MOLECULAR WEIGHT>
290.268

> <BIOSOLVEIT.MOLECULE_CHECKSUM>
LTIuMDM3MzI7MC4wOTcwMTUy

> <BIOSOLVEIT.TORSION_QUALITY range: red, yellow, green, not rotatable>
red

> <BIOSOLVEIT.TPSA>
58.2

$$$$
Z28051555.****
b8Hydescor01032215413D 1   1.00000     0.00000     0
Hydescorer 1.1.2 b8048283
 34 36  0  0  0  0            999 V2000
   14.4450  -34.1148  -11.9340 C   0  0  0  0  0  0  0  0  0  0  0  0
   14.7841  -34.4868  -10.6319 C   0  0  0  0  0  0  0  0  0  0  0  0
   15.6348  -33.6661   -9.8847 C   0  0  0  0  0  0  0  0  0  0  0  0
   16.1396  -32.4811  -10.4228 C   0  0  0  0  0  0  0  0  0  0  0  0
   15.7992  -32.1057  -11.7195 C   0  0  0  0  0  0  0  0  0  0  0  0
   14.9586  -32.9321  -12.4499 C   0  0  0  0  0  0  0  0  0  0  0  0
   14.6228  -32.5733  -13.7104 F   0  0  0  0  0  0  0  0  0  0  0  0
   14.2313  -35.7691  -10.0255 C   0  0  0  0  0  0  0  0  0  0  0  0
   14.9373  -36.9288  -10.7005 C   0  0  0  0  0  0  0  0  0  0  0  0
   14.1737  -38.0239  -11.0236 N   0  0  0  0  0  0  0  0  0  0  0  0
   16.1292  -36.9123  -10.9283 O   0  0  0  0  0  0  0  0  0  0  0  0
   14.6069  -39.2150  -11.6528 C   0  0  0  0  0  0  0  0  0  0  0  0
   15.9579  -39.4690  -11.8941 C   0  0  0  0  0  0  0  0  0  0  0  0
   16.3059  -40.6747  -12.5030 C   0  0  0  0  0  0  0  0  0  0  0  0
   15.3375  -41.6018  -12.9013 C   0  0  0  0  0  0  0  0  0  0  0  0
   13.9936  -41.3180  -12.6698 C   0  0  0  0  0  0  0  0  0  0  0  0
   13.6245  -40.1280  -12.0447 C   0  0  0  0  0  0  0  0  0  0  0  0
   17.6994  -40.9752  -12.7195 N   0  0  0  0  0  0  0  0  0  0  0  0
   18.1442  -42.0705  -13.3153 N   0  0  0  0  0  0  0  0  0  0  0  0
   19.4425  -41.9645  -13.3078 N   0  0  0  0  0  0  0  0  0  0  0  0
   19.8213  -40.8037  -12.7055 N   0  0  0  0  0  0  0  0  0  0  0  0
   18.7319  -40.2264  -12.3580 C   0  0  0  0  0  0  0  0  0  0  0  0
   13.8420  -34.6905  -12.4863 H   0  0  0  0  0  0  0  0  0  0  0  0
   15.8846  -33.9313   -8.9535 H   0  0  0  0  0  0  0  0  0  0  0  0
   16.7453  -31.9021   -9.8772 H   0  0  0  0  0  0  0  0  0  0  0  0
   16.1532  -31.2585  -12.1156 H   0  0  0  0  0  0  0  0  0  0  0  0
   13.2462  -35.8273  -10.1875 H   0  0  0  0  0  0  0  0  0  0  0  0
   14.4088  -35.7866   -9.0415 H   0  0  0  0  0  0  0  0  0  0  0  0
   13.2031  -37.9738  -10.7879 H   0  0  0  0  0  0  0  0  0  0  0  0
   16.6586  -38.8034  -11.6370 H   0  0  0  0  0  0  0  0  0  0  0  0
   15.6061  -42.4562  -13.3459 H   0  0  0  0  0  0  0  0  0  0  0  0
   13.2908  -41.9705  -12.9532 H   0  0  0  0  0  0  0  0  0  0  0  0
   12.6591  -39.9282  -11.8771 H   0  0  0  0  0  0  0  0  0  0  0  0
   18.6699  -39.3466  -11.8868 H   0  0  0  0  0  0  0  0  0  0  0  0
  1  2  2  0  0  0  0
  1  6  1  0  0  0  0
  1 23  1  0  0  0  0
  2  3  1  0  0  0  0
  2  8  1  0  0  0  0
  3  4  2  0  0  0  0
  3 24  1  0  0  0  0
  4  5  1  0  0  0  0
  4 25  1  0  0  0  0
  5  6  2  0  0  0  0
  5 26  1  0  0  0  0
  6  7  1  0  0  0  0
  8  9  1  0  0  0  0
  8 27  1  0  0  0  0
  8 28  1  0  0  0  0
  9 10  1  0  0  0  0
  9 11  2  0  0  0  0
 10 12  1  0  0  0  0
 10 29  1  0  0  0  0
 12 13  2  0  0  0  0
 12 17  1  0  0  0  0
 13 14  1  0  0  0  0
 13 30  1  0  0  0  0
 14 15  2  0  0  0  0
 14 18  1  0  0  0  0
 15 16  1  0  0  0  0
 15 31  1  0  0  0  0
 16 17  2  0  0  0  0
 16 32  1  0  0  0  0
 17 33  1  0  0  0  0
 18 19  1  0  0  0  0
 18 22  1  0  0  0  0
 19 20  2  0  0  0  0
 20 21  1  0  0  0  0
 21 22  2  0  0  0  0
 22 34  1  0  0  0  0
M  END
> <BIOSOLVEIT.HYDE_ESTIMATED_AFFINITY_LOWER_BOUNDARY [nM]>
8602462.736185

> <BIOSOLVEIT.HYDE_ESTIMATED_AFFINITY_UPPER_BOUNDARY [nM]>
854705534.624972

> <BIOSOLVEIT.HYDE_LIGAND_EFFICIENCY range: ++, +, 0, -, -->
--

> <BIOSOLVEIT.HYDE_LIGAND_LIPOPHILIC_EFFICIENCY range: ++, +, 0, -, -->
--

> <BIOSOLVEIT.INTER_CLASH range: red, yellow, green>
green

> <BIOSOLVEIT.INTRA_CLASH range: red, yellow, green>
yellow

> <BIOSOLVEIT.LOGP>
1.9826

> <BIOSOLVEIT.MOLECULAR WEIGHT>
297.292

> <BIOSOLVEIT.MOLECULE_CHECKSUM>
LTYuMDg5MTk7MC4yNzY3ODE=

> <BIOSOLVEIT.TORSION_QUALITY range: red, yellow, green, not rotatable>
green

> <BIOSOLVEIT.TPSA>
72.7

$$$$
Z28051555.****
b8Hydescor01032215413D 1   1.00000     0.00000     0
Hydescorer 1.1.2 b8048283
 34 36  0  0  0  0            999 V2000
   16.4777  -32.2768   -9.6792 C   0  0  0  0  0  0  0  0  0  0  0  0
   16.1747  -33.5214  -10.2346 C   0  0  0  0  0  0  0  0  0  0  0  0
   15.6132  -33.5820  -11.5139 C   0  0  0  0  0  0  0  0  0  0  0  0
   15.3609  -32.4168  -12.2399 C   0  0  0  0  0  0  0  0  0  0  0  0
   15.6663  -31.1748  -11.6899 C   0  0  0  0  0  0  0  0  0  0  0  0
   16.2182  -31.1303  -10.4186 C   0  0  0  0  0  0  0  0  0  0  0  0
   16.5184  -29.9270   -9.8781 F   0  0  0  0  0  0  0  0  0  0  0  0
   16.4563  -34.8022   -9.4613 C   0  0  0  0  0  0  0  0  0  0  0  0
   16.2195  -35.9624  -10.4082 C   0  0  0  0  0  0  0  0  0  0  0  0
   14.9585  -36.5068  -10.4279 N   0  0  0  0  0  0  0  0  0  0  0  0
   17.1036  -36.4156  -11.1051 O   0  0  0  0  0  0  0  0  0  0  0  0
   14.5034  -37.5861  -11.2220 C   0  0  0  0  0  0  0  0  0  0  0  0
   13.4353  -37.4459  -12.1094 C   0  0  0  0  0  0  0  0  0  0  0  0
   13.0579  -38.5524  -12.8702 C   0  0  0  0  0  0  0  0  0  0  0  0
   13.6980  -39.7884  -12.7351 C   0  0  0  0  0  0  0  0  0  0  0  0
   14.7479  -39.9111  -11.8279 C   0  0  0  0  0  0  0  0  0  0  0  0
   15.1547  -38.8130  -11.0717 C   0  0  0  0  0  0  0  0  0  0  0  0
   11.9863  -38.4152  -13.8251 N   0  0  0  0  0  0  0  0  0  0  0  0
   11.2297  -39.4154  -14.2486 N   0  0  0  0  0  0  0  0  0  0  0  0
   10.3957  -38.8829  -15.0958 N   0  0  0  0  0  0  0  0  0  0  0  0
   10.6247  -37.5457  -15.2115 N   0  0  0  0  0  0  0  0  0  0  0  0
   11.6027  -37.2959  -14.4231 C   0  0  0  0  0  0  0  0  0  0  0  0
   16.8750  -32.2121   -8.7638 H   0  0  0  0  0  0  0  0  0  0  0  0
   15.3897  -34.4709  -11.9136 H   0  0  0  0  0  0  0  0  0  0  0  0
   14.9609  -32.4740  -13.1546 H   0  0  0  0  0  0  0  0  0  0  0  0
   15.4915  -30.3330  -12.2007 H   0  0  0  0  0  0  0  0  0  0  0  0
   15.8407  -34.8703   -8.6761 H   0  0  0  0  0  0  0  0  0  0  0  0
   17.4043  -34.8083   -9.1430 H   0  0  0  0  0  0  0  0  0  0  0  0
   14.2870  -36.0944   -9.8123 H   0  0  0  0  0  0  0  0  0  0  0  0
   12.9528  -36.5744  -12.1975 H   0  0  0  0  0  0  0  0  0  0  0  0
   13.4061  -40.5731  -13.2820 H   0  0  0  0  0  0  0  0  0  0  0  0
   15.2117  -40.7904  -11.7187 H   0  0  0  0  0  0  0  0  0  0  0  0
   15.9107  -38.9031  -10.4233 H   0  0  0  0  0  0  0  0  0  0  0  0
   12.0135  -36.3954  -14.2806 H   0  0  0  0  0  0  0  0  0  0  0  0
  1  2  2  0  0  0  0
  1  6  1  0  0  0  0
  1 23  1  0  0  0  0
  2  3  1  0  0  0  0
  2  8  1  0  0  0  0
  3  4  2  0  0  0  0
  3 24  1  0  0  0  0
  4  5  1  0  0  0  0
  4 25  1  0  0  0  0
  5  6  2  0  0  0  0
  5 26  1  0  0  0  0
  6  7  1  0  0  0  0
  8  9  1  0  0  0  0
  8 27  1  0  0  0  0
  8 28  1  0  0  0  0
  9 10  1  0  0  0  0
  9 11  2  0  0  0  0
 10 12  1  0  0  0  0
 10 29  1  0  0  0  0
 12 13  2  0  0  0  0
 12 17  1  0  0  0  0
 13 14  1  0  0  0  0
 13 30  1  0  0  0  0
 14 15  2  0  0  0  0
 14 18  1  0  0  0  0
 15 16  1  0  0  0  0
 15 31  1  0  0  0  0
 16 17  2  0  0  0  0
 16 32  1  0  0  0  0
 17 33  1  0  0  0  0
 18 19  1  0  0  0  0
 18 22  1  0  0  0  0
 19 20  2  0  0  0  0
 20 21  1  0  0  0  0
 21 22  2  0  0  0  0
 22 34  1  0  0  0  0
M  END
> <BIOSOLVEIT.HYDE_ESTIMATED_AFFINITY_LOWER_BOUNDARY [nM]>
2497421.900908

> <BIOSOLVEIT.HYDE_ESTIMATED_AFFINITY_UPPER_BOUNDARY [nM]>
248133631.782092

> <BIOSOLVEIT.HYDE_LIGAND_EFFICIENCY range: ++, +, 0, -, -->
--

> <BIOSOLVEIT.HYDE_LIGAND_LIPOPHILIC_EFFICIENCY range: ++, +, 0, -, -->
--

> <BIOSOLVEIT.INTER_CLASH range: red, yellow, green>
green

> <BIOSOLVEIT.INTRA_CLASH range: red, yellow, green>
green

> <BIOSOLVEIT.LOGP>
1.9826

> <BIOSOLVEIT.MOLECULAR WEIGHT>
297.292

> <BIOSOLVEIT.MOLECULE_CHECKSUM>
LTkuMTU1MTQ7MC40MTYxNDM=

> <BIOSOLVEIT.TORSION_QUALITY range: red, yellow, green, not rotatable>
yellow

> <BIOSOLVEIT.TPSA>
72.7

$$$$
Z28051555.****
b8Hydescor01032215413D 1   1.00000     0.00000     0
Hydescorer 1.1.2 b8048283
 34 36  0  0  0  0            999 V2000
   15.6979  -31.2557  -11.6026 C   0  0  0  0  0  0  0  0  0  0  0  0
   15.2367  -32.5454  -11.8730 C   0  0  0  0  0  0  0  0  0  0  0  0
   15.3830  -33.5423  -10.9032 C   0  0  0  0  0  0  0  0  0  0  0  0
   15.9760  -33.2601   -9.6714 C   0  0  0  0  0  0  0  0  0  0  0  0
   16.4326  -31.9737   -9.3979 C   0  0  0  0  0  0  0  0  0  0  0  0
   16.2849  -30.9968  -10.3710 C   0  0  0  0  0  0  0  0  0  0  0  0
   16.7255  -29.7443  -10.1118 F   0  0  0  0  0  0  0  0  0  0  0  0
   14.5755  -32.8663  -13.2062 C   0  0  0  0  0  0  0  0  0  0  0  0
   14.5871  -34.3741  -13.3646 C   0  0  0  0  0  0  0  0  0  0  0  0
   13.4364  -35.0472  -13.0332 N   0  0  0  0  0  0  0  0  0  0  0  0
   15.5718  -34.9742  -13.7428 O   0  0  0  0  0  0  0  0  0  0  0  0
   13.2111  -36.4426  -13.0976 C   0  0  0  0  0  0  0  0  0  0  0  0
   14.0172  -37.3494  -12.4079 C   0  0  0  0  0  0  0  0  0  0  0  0
   13.7192  -38.7084  -12.5080 C   0  0  0  0  0  0  0  0  0  0  0  0
   12.6662  -39.1720  -13.3030 C   0  0  0  0  0  0  0  0  0  0  0  0
   11.8878  -38.2505  -13.9995 C   0  0  0  0  0  0  0  0  0  0  0  0
   12.1553  -36.8861  -13.8980 C   0  0  0  0  0  0  0  0  0  0  0  0
   14.5125  -39.6573  -11.7668 N   0  0  0  0  0  0  0  0  0  0  0  0
   14.0820  -40.3273  -10.7092 N   0  0  0  0  0  0  0  0  0  0  0  0
   15.0882  -41.0647  -10.3347 N   0  0  0  0  0  0  0  0  0  0  0  0
   16.1574  -40.8612  -11.1527 N   0  0  0  0  0  0  0  0  0  0  0  0
   15.7704  -39.9954  -12.0138 C   0  0  0  0  0  0  0  0  0  0  0  0
   15.6071  -30.5302  -12.2847 H   0  0  0  0  0  0  0  0  0  0  0  0
   15.0589  -34.4687  -11.0945 H   0  0  0  0  0  0  0  0  0  0  0  0
   16.0727  -33.9815   -8.9858 H   0  0  0  0  0  0  0  0  0  0  0  0
   16.8578  -31.7587   -8.5187 H   0  0  0  0  0  0  0  0  0  0  0  0
   15.0862  -32.4400  -13.9529 H   0  0  0  0  0  0  0  0  0  0  0  0
   13.6341  -32.5290  -13.2112 H   0  0  0  0  0  0  0  0  0  0  0  0
   12.6724  -34.4885  -12.7104 H   0  0  0  0  0  0  0  0  0  0  0  0
   14.7888  -37.0330  -11.8561 H   0  0  0  0  0  0  0  0  0  0  0  0
   12.4747  -40.1511  -13.3705 H   0  0  0  0  0  0  0  0  0  0  0  0
   11.1341  -38.5689  -14.5746 H   0  0  0  0  0  0  0  0  0  0  0  0
   11.5931  -36.2265  -14.3968 H   0  0  0  0  0  0  0  0  0  0  0  0
   16.3306  -39.6308  -12.7576 H   0  0  0  0  0  0  0  0  0  0  0  0
  1  2  2  0  0  0  0
  1  6  1  0  0  0  0
  1 23  1  0  0  0  0
  2  3  1  0  0  0  0
  2  8  1  0  0  0  0
  3  4  2  0  0  0  0
  3 24  1  0  0  0  0
  4  5  1  0  0  0  0
  4 25  1  0  0  0  0
  5  6  2  0  0  0  0
  5 26  1  0  0  0  0
  6  7  1  0  0  0  0
  8  9  1  0  0  0  0
  8 27  1  0  0  0  0
  8 28  1  0  0  0  0
  9 10  1  0  0  0  0
  9 11  2  0  0  0  0
 10 12  1  0  0  0  0
 10 29  1  0  0  0  0
 12 13  2  0  0  0  0
 12 17  1  0  0  0  0
 13 14  1  0  0  0  0
 13 30  1  0  0  0  0
 14 15  2  0  0  0  0
 14 18  1  0  0  0  0
 15 16  1  0  0  0  0
 15 31  1  0  0  0  0
 16 17  2  0  0  0  0
 16 32  1  0  0  0  0
 17 33  1  0  0  0  0
 18 19  1  0  0  0  0
 18 22  1  0  0  0  0
 19 20  2  0  0  0  0
 20 21  1  0  0  0  0
 21 22  2  0  0  0  0
 22 34  1  0  0  0  0
M  END
> <BIOSOLVEIT.HYDE_ESTIMATED_AFFINITY_LOWER_BOUNDARY [nM]>
52014205.573270

> <BIOSOLVEIT.HYDE_ESTIMATED_AFFINITY_UPPER_BOUNDARY [nM]>
5167918856.026185

> <BIOSOLVEIT.HYDE_LIGAND_EFFICIENCY range: ++, +, 0, -, -->
--

> <BIOSOLVEIT.HYDE_LIGAND_LIPOPHILIC_EFFICIENCY range: ++, +, 0, -, -->
--

> <BIOSOLVEIT.INTER_CLASH range: red, yellow, green>
green

> <BIOSOLVEIT.INTRA_CLASH range: red, yellow, green>
green

> <BIOSOLVEIT.LOGP>
1.9826

> <BIOSOLVEIT.MOLECULAR WEIGHT>
297.292

> <BIOSOLVEIT.MOLECULE_CHECKSUM>
LTEuNjI4Mzk7MC4wNzQwMTc2

> <BIOSOLVEIT.TORSION_QUALITY range: red, yellow, green, not rotatable>
red

> <BIOSOLVEIT.TPSA>
72.7

$$$$
Z28051555.****
b8Hydescor01032215413D 1   1.00000     0.00000     0
Hydescorer 1.1.2 b8048283
 34 36  0  0  0  0            999 V2000
   16.3462  -34.4833  -13.7926 C   0  0  0  0  0  0  0  0  0  0  0  0
   17.3783  -35.1424  -13.1220 C   0  0  0  0  0  0  0  0  0  0  0  0
   17.5589  -34.9180  -11.7536 C   0  0  0  0  0  0  0  0  0  0  0  0
   16.7171  -34.0516  -11.0540 C   0  0  0  0  0  0  0  0  0  0  0  0
   15.6845  -33.3968  -11.7196 C   0  0  0  0  0  0  0  0  0  0  0  0
   15.5208  -33.6255  -13.0774 C   0  0  0  0  0  0  0  0  0  0  0  0
   14.5189  -32.9933  -13.7307 F   0  0  0  0  0  0  0  0  0  0  0  0
   18.2965  -36.1009  -13.8678 C   0  0  0  0  0  0  0  0  0  0  0  0
   17.6331  -37.4641  -13.8540 C   0  0  0  0  0  0  0  0  0  0  0  0
   17.8752  -38.2670  -12.7660 N   0  0  0  0  0  0  0  0  0  0  0  0
   16.9366  -37.8506  -14.7695 O   0  0  0  0  0  0  0  0  0  0  0  0
   17.3711  -39.5683  -12.5323 C   0  0  0  0  0  0  0  0  0  0  0  0
   16.0271  -39.7922  -12.2300 C   0  0  0  0  0  0  0  0  0  0  0  0
   15.6040  -41.1064  -12.0306 C   0  0  0  0  0  0  0  0  0  0  0  0
   16.4960  -42.1816  -12.0921 C   0  0  0  0  0  0  0  0  0  0  0  0
   17.8372  -41.9329  -12.3744 C   0  0  0  0  0  0  0  0  0  0  0  0
   18.2780  -40.6291  -12.5969 C   0  0  0  0  0  0  0  0  0  0  0  0
   14.2106  -41.3618  -11.7619 N   0  0  0  0  0  0  0  0  0  0  0  0
   13.7401  -42.4970  -11.2692 N   0  0  0  0  0  0  0  0  0  0  0  0
   12.4515  -42.3277  -11.1820 N   0  0  0  0  0  0  0  0  0  0  0  0
   12.1042  -41.0866  -11.6212 N   0  0  0  0  0  0  0  0  0  0  0  0
   13.2024  -40.5261  -11.9684 C   0  0  0  0  0  0  0  0  0  0  0  0
   16.2037  -34.6265  -14.7720 H   0  0  0  0  0  0  0  0  0  0  0  0
   18.3001  -35.3840  -11.2703 H   0  0  0  0  0  0  0  0  0  0  0  0
   16.8558  -33.9014  -10.0751 H   0  0  0  0  0  0  0  0  0  0  0  0
   15.0740  -32.7749  -11.2291 H   0  0  0  0  0  0  0  0  0  0  0  0
   19.1850  -36.1482  -13.4114 H   0  0  0  0  0  0  0  0  0  0  0  0
   18.4219  -35.7910  -14.8102 H   0  0  0  0  0  0  0  0  0  0  0  0
   18.4748  -37.8896  -12.0603 H   0  0  0  0  0  0  0  0  0  0  0  0
   15.3839  -39.0300  -12.1581 H   0  0  0  0  0  0  0  0  0  0  0  0
   16.1756  -43.1158  -11.9356 H   0  0  0  0  0  0  0  0  0  0  0  0
   18.4863  -42.6924  -12.4177 H   0  0  0  0  0  0  0  0  0  0  0  0
   19.2408  -40.4537  -12.8023 H   0  0  0  0  0  0  0  0  0  0  0  0
   13.2864  -39.6008  -12.3382 H   0  0  0  0  0  0  0  0  0  0  0  0
  1  2  2  0  0  0  0
  1  6  1  0  0  0  0
  1 23  1  0  0  0  0
  2  3  1  0  0  0  0
  2  8  1  0  0  0  0
  3  4  2  0  0  0  0
  3 24  1  0  0  0  0
  4  5  1  0  0  0  0
  4 25  1  0  0  0  0
  5  6  2  0  0  0  0
  5 26  1  0  0  0  0
  6  7  1  0  0  0  0
  8  9  1  0  0  0  0
  8 27  1  0  0  0  0
  8 28  1  0  0  0  0
  9 10  1  0  0  0  0
  9 11  2  0  0  0  0
 10 12  1  0  0  0  0
 10 29  1  0  0  0  0
 12 13  2  0  0  0  0
 12 17  1  0  0  0  0
 13 14  1  0  0  0  0
 13 30  1  0  0  0  0
 14 15  2  0  0  0  0
 14 18  1  0  0  0  0
 15 16  1  0  0  0  0
 15 31  1  0  0  0  0
 16 17  2  0  0  0  0
 16 32  1  0  0  0  0
 17 33  1  0  0  0  0
 18 19  1  0  0  0  0
 18 22  1  0  0  0  0
 19 20  2  0  0  0  0
 20 21  1  0  0  0  0
 21 22  2  0  0  0  0
 22 34  1  0  0  0  0
M  END
> <BIOSOLVEIT.HYDE_ESTIMATED_AFFINITY_LOWER_BOUNDARY [nM]>
202995028.649020

> <BIOSOLVEIT.HYDE_ESTIMATED_AFFINITY_UPPER_BOUNDARY [nM]>
20168756297.874855

> <BIOSOLVEIT.HYDE_LIGAND_EFFICIENCY range: ++, +, 0, -, -->
--

> <BIOSOLVEIT.HYDE_LIGAND_LIPOPHILIC_EFFICIENCY range: ++, +, 0, -, -->
--

> <BIOSOLVEIT.INTER_CLASH range: red, yellow, green>
green

> <BIOSOLVEIT.INTRA_CLASH range: red, yellow, green>
green

> <BIOSOLVEIT.LOGP>
1.9826

> <BIOSOLVEIT.MOLECULAR WEIGHT>
297.292

> <BIOSOLVEIT.MOLECULE_CHECKSUM>
MS43NDcxMjsw

> <BIOSOLVEIT.TORSION_QUALITY range: red, yellow, green, not rotatable>
yellow

> <BIOSOLVEIT.TPSA>
72.7

$$$$
Z28051555.****
b8Hydescor01032215413D 1   1.00000     0.00000     0
Hydescorer 1.1.2 b8048283
 34 36  0  0  0  0            999 V2000
   16.1783  -30.9580  -12.0697 C   0  0  0  0  0  0  0  0  0  0  0  0
   15.4142  -32.0232  -11.5892 C   0  0  0  0  0  0  0  0  0  0  0  0
   15.4045  -32.2949  -10.2173 C   0  0  0  0  0  0  0  0  0  0  0  0
   16.1414  -31.5110   -9.3280 C   0  0  0  0  0  0  0  0  0  0  0  0
   16.9004  -30.4455   -9.8044 C   0  0  0  0  0  0  0  0  0  0  0  0
   16.9041  -30.1913  -11.1676 C   0  0  0  0  0  0  0  0  0  0  0  0
   17.6386  -29.1570  -11.6376 F   0  0  0  0  0  0  0  0  0  0  0  0
   14.5942  -32.8793  -12.5444 C   0  0  0  0  0  0  0  0  0  0  0  0
   15.5651  -33.7531  -13.3141 C   0  0  0  0  0  0  0  0  0  0  0  0
   16.4517  -34.5017  -12.5791 N   0  0  0  0  0  0  0  0  0  0  0  0
   15.5846  -33.7799  -14.5273 O   0  0  0  0  0  0  0  0  0  0  0  0
   17.4426  -35.3836  -13.0713 C   0  0  0  0  0  0  0  0  0  0  0  0
   17.7784  -36.5600  -12.3994 C   0  0  0  0  0  0  0  0  0  0  0  0
   18.7534  -37.3859  -12.9586 C   0  0  0  0  0  0  0  0  0  0  0  0
   19.4142  -37.0431  -14.1424 C   0  0  0  0  0  0  0  0  0  0  0  0
   19.0782  -35.8539  -14.7851 C   0  0  0  0  0  0  0  0  0  0  0  0
   18.0925  -35.0231  -14.2544 C   0  0  0  0  0  0  0  0  0  0  0  0
   19.0817  -38.6275  -12.3031 N   0  0  0  0  0  0  0  0  0  0  0  0
   20.1371  -38.8054  -11.5240 N   0  0  0  0  0  0  0  0  0  0  0  0
   20.0765  -40.0483  -11.1389 N   0  0  0  0  0  0  0  0  0  0  0  0
   18.9845  -40.6595  -11.6753 N   0  0  0  0  0  0  0  0  0  0  0  0
   18.4019  -39.7631  -12.3809 C   0  0  0  0  0  0  0  0  0  0  0  0
   16.2025  -30.7506  -13.0477 H   0  0  0  0  0  0  0  0  0  0  0  0
   14.8628  -33.0601   -9.8693 H   0  0  0  0  0  0  0  0  0  0  0  0
   16.1241  -31.7147   -8.3491 H   0  0  0  0  0  0  0  0  0  0  0  0
   17.4314  -29.8759   -9.1772 H   0  0  0  0  0  0  0  0  0  0  0  0
   14.0850  -32.2950  -13.1762 H   0  0  0  0  0  0  0  0  0  0  0  0
   13.9547  -33.4500  -12.0293 H   0  0  0  0  0  0  0  0  0  0  0  0
   16.3898  -34.4135  -11.5849 H   0  0  0  0  0  0  0  0  0  0  0  0
   17.3313  -36.8046  -11.5390 H   0  0  0  0  0  0  0  0  0  0  0  0
   20.1181  -37.6433  -14.5222 H   0  0  0  0  0  0  0  0  0  0  0  0
   19.5458  -35.5952  -15.6302 H   0  0  0  0  0  0  0  0  0  0  0  0
   17.8512  -34.1713  -14.7193 H   0  0  0  0  0  0  0  0  0  0  0  0
   17.5636  -39.8989  -12.9090 H   0  0  0  0  0  0  0  0  0  0  0  0
  1  2  2  0  0  0  0
  1  6  1  0  0  0  0
  1 23  1  0  0  0  0
  2  3  1  0  0  0  0
  2  8  1  0  0  0  0
  3  4  2  0  0  0  0
  3 24  1  0  0  0  0
  4  5  1  0  0  0  0
  4 25  1  0  0  0  0
  5  6  2  0  0  0  0
  5 26  1  0  0  0  0
  6  7  1  0  0  0  0
  8  9  1  0  0  0  0
  8 27  1  0  0  0  0
  8 28  1  0  0  0  0
  9 10  1  0  0  0  0
  9 11  2  0  0  0  0
 10 12  1  0  0  0  0
 10 29  1  0  0  0  0
 12 13  2  0  0  0  0
 12 17  1  0  0  0  0
 13 14  1  0  0  0  0
 13 30  1  0  0  0  0
 14 15  2  0  0  0  0
 14 18  1  0  0  0  0
 15 16  1  0  0  0  0
 15 31  1  0  0  0  0
 16 17  2  0  0  0  0
 16 32  1  0  0  0  0
 17 33  1  0  0  0  0
 18 19  1  0  0  0  0
 18 22  1  0  0  0  0
 19 20  2  0  0  0  0
 20 21  1  0  0  0  0
 21 22  2  0  0  0  0
 22 34  1  0  0  0  0
M  END
> <BIOSOLVEIT.HYDE_ESTIMATED_AFFINITY_LOWER_BOUNDARY [nM]>
352.251155

> <BIOSOLVEIT.HYDE_ESTIMATED_AFFINITY_UPPER_BOUNDARY [nM]>
34998.234942

> <BIOSOLVEIT.HYDE_LIGAND_EFFICIENCY range: ++, +, 0, -, -->
0

> <BIOSOLVEIT.HYDE_LIGAND_LIPOPHILIC_EFFICIENCY range: ++, +, 0, -, -->
-

> <BIOSOLVEIT.INTER_CLASH range: red, yellow, green>
green

> <BIOSOLVEIT.INTRA_CLASH range: red, yellow, green>
yellow

> <BIOSOLVEIT.LOGP>
1.9826

> <BIOSOLVEIT.MOLECULAR WEIGHT>
297.292

> <BIOSOLVEIT.MOLECULE_CHECKSUM>
LTMxLjEzNDY7MS40MTUyMQ==

> <BIOSOLVEIT.TORSION_QUALITY range: red, yellow, green, not rotatable>
red

> <BIOSOLVEIT.TPSA>
72.7

$$$$
Z28051555.****
b8Hydescor01032215413D 1   1.00000     0.00000     0
Hydescorer 1.1.2 b8048283
 34 36  0  0  0  0            999 V2000
   14.3436  -34.2520  -12.3452 C   0  0  0  0  0  0  0  0  0  0  0  0
   13.9809  -35.4023  -11.6421 C   0  0  0  0  0  0  0  0  0  0  0  0
   14.4925  -35.6096  -10.3573 C   0  0  0  0  0  0  0  0  0  0  0  0
   15.3520  -34.6789   -9.7712 C   0  0  0  0  0  0  0  0  0  0  0  0
   15.7116  -33.5288  -10.4686 C   0  0  0  0  0  0  0  0  0  0  0  0
   15.2001  -33.3394  -11.7435 C   0  0  0  0  0  0  0  0  0  0  0  0
   15.5445  -32.2236  -12.4267 F   0  0  0  0  0  0  0  0  0  0  0  0
   13.0337  -36.4206  -12.2618 C   0  0  0  0  0  0  0  0  0  0  0  0
   13.8485  -37.6583  -12.5826 C   0  0  0  0  0  0  0  0  0  0  0  0
   13.6862  -38.7454  -11.7587 N   0  0  0  0  0  0  0  0  0  0  0  0
   14.6317  -37.6914  -13.5089 O   0  0  0  0  0  0  0  0  0  0  0  0
   14.3329  -40.0000  -11.8582 C   0  0  0  0  0  0  0  0  0  0  0  0
   13.6274  -41.2002  -11.7593 C   0  0  0  0  0  0  0  0  0  0  0  0
   14.3346  -42.3957  -11.8857 C   0  0  0  0  0  0  0  0  0  0  0  0
   15.7206  -42.4120  -12.0712 C   0  0  0  0  0  0  0  0  0  0  0  0
   16.4076  -41.2025  -12.1458 C   0  0  0  0  0  0  0  0  0  0  0  0
   15.7179  -39.9955  -12.0419 C   0  0  0  0  0  0  0  0  0  0  0  0
   13.6167  -43.6450  -11.8317 N   0  0  0  0  0  0  0  0  0  0  0  0
   13.5917  -44.5359  -12.8105 N   0  0  0  0  0  0  0  0  0  0  0  0
   12.8394  -45.5062  -12.3752 N   0  0  0  0  0  0  0  0  0  0  0  0
   12.3855  -45.2300  -11.1215 N   0  0  0  0  0  0  0  0  0  0  0  0
   12.8785  -44.0862  -10.8227 C   0  0  0  0  0  0  0  0  0  0  0  0
   13.9924  -34.0879  -13.2670 H   0  0  0  0  0  0  0  0  0  0  0  0
   14.2395  -36.4347   -9.8521 H   0  0  0  0  0  0  0  0  0  0  0  0
   15.7094  -34.8382   -8.8510 H   0  0  0  0  0  0  0  0  0  0  0  0
   16.3254  -32.8539  -10.0589 H   0  0  0  0  0  0  0  0  0  0  0  0
   12.6320  -36.0491  -13.0988 H   0  0  0  0  0  0  0  0  0  0  0  0
   12.3056  -36.6484  -11.6152 H   0  0  0  0  0  0  0  0  0  0  0  0
   13.0387  -38.6381  -11.0042 H   0  0  0  0  0  0  0  0  0  0  0  0
   12.6398  -41.2029  -11.6017 H   0  0  0  0  0  0  0  0  0  0  0  0
   16.2116  -43.2797  -12.1493 H   0  0  0  0  0  0  0  0  0  0  0  0
   17.3993  -41.2001  -12.2743 H   0  0  0  0  0  0  0  0  0  0  0  0
   16.2132  -39.1287  -12.0987 H   0  0  0  0  0  0  0  0  0  0  0  0
   12.7294  -43.6008   -9.9612 H   0  0  0  0  0  0  0  0  0  0  0  0
  1  2  2  0  0  0  0
  1  6  1  0  0  0  0
  1 23  1  0  0  0  0
  2  3  1  0  0  0  0
  2  8  1  0  0  0  0
  3  4  2  0  0  0  0
  3 24  1  0  0  0  0
  4  5  1  0  0  0  0
  4 25  1  0  0  0  0
  5  6  2  0  0  0  0
  5 26  1  0  0  0  0
  6  7  1  0  0  0  0
  8  9  1  0  0  0  0
  8 27  1  0  0  0  0
  8 28  1  0  0  0  0
  9 10  1  0  0  0  0
  9 11  2  0  0  0  0
 10 12  1  0  0  0  0
 10 29  1  0  0  0  0
 12 13  2  0  0  0  0
 12 17  1  0  0  0  0
 13 14  1  0  0  0  0
 13 30  1  0  0  0  0
 14 15  2  0  0  0  0
 14 18  1  0  0  0  0
 15 16  1  0  0  0  0
 15 31  1  0  0  0  0
 16 17  2  0  0  0  0
 16 32  1  0  0  0  0
 17 33  1  0  0  0  0
 18 19  1  0  0  0  0
 18 22  1  0  0  0  0
 19 20  2  0  0  0  0
 20 21  1  0  0  0  0
 21 22  2  0  0  0  0
 22 34  1  0  0  0  0
M  END
> <BIOSOLVEIT.HYDE_ESTIMATED_AFFINITY_LOWER_BOUNDARY [nM]>
304511656.914987

> <BIOSOLVEIT.HYDE_ESTIMATED_AFFINITY_UPPER_BOUNDARY [nM]>
30255033529.906593

> <BIOSOLVEIT.HYDE_LIGAND_EFFICIENCY range: ++, +, 0, -, -->
--

> <BIOSOLVEIT.HYDE_LIGAND_LIPOPHILIC_EFFICIENCY range: ++, +, 0, -, -->
--

> <BIOSOLVEIT.INTER_CLASH range: red, yellow, green>
green

> <BIOSOLVEIT.INTRA_CLASH range: red, yellow, green>
green

> <BIOSOLVEIT.LOGP>
1.9826

> <BIOSOLVEIT.MOLECULAR WEIGHT>
297.292

> <BIOSOLVEIT.MOLECULE_CHECKSUM>
Mi43NTI0MTsw

> <BIOSOLVEIT.TORSION_QUALITY range: red, yellow, green, not rotatable>
yellow

> <BIOSOLVEIT.TPSA>
72.7

$$$$
G5.sdf
b8Hydescor01032215413D 1   1.00000     0.00000     0
Hydescorer 1.1.2 b8048283
 74 77  0  0  0  0            999 V2000
   15.6897  -33.6140  -10.9352 C   0  0  0  0  0  0  0  0  0  0  0  0
   15.8586  -32.8735   -9.7708 C   0  0  0  0  0  0  0  0  0  0  0  0
   15.9648  -31.4869   -9.8356 C   0  0  0  0  0  0  0  0  0  0  0  0
   15.8949  -30.8411  -11.0666 C   0  0  0  0  0  0  0  0  0  0  0  0
   15.7264  -31.5795  -12.2321 C   0  0  0  0  0  0  0  0  0  0  0  0
   15.6339  -32.9779  -12.1860 C   0  0  0  0  0  0  0  0  0  0  0  0
   15.4746  -33.7455  -13.4220 C   0  0  0  0  0  0  0  0  0  0  0  0
   14.9350  -33.2206  -14.3865 O   0  0  0  0  0  0  0  0  0  0  0  0
   15.9474  -35.1256  -13.5379 C   0  0  0  0  0  0  0  0  0  0  0  0
   17.3041  -35.4243  -13.3458 C   0  0  0  0  0  0  0  0  0  0  0  0
   17.7699  -36.7275  -13.4648 C   0  0  0  0  0  0  0  0  0  0  0  0
   16.8940  -37.7775  -13.7760 C   0  0  0  0  0  0  0  0  0  0  0  0
   15.5306  -37.4845  -13.9426 C   0  0  0  0  0  0  0  0  0  0  0  0
   15.0652  -36.1800  -13.8247 C   0  0  0  0  0  0  0  0  0  0  0  0
   17.4133  -39.1416  -13.9159 C   0  0  0  0  0  0  0  0  0  0  0  0
   17.6599  -39.8897  -12.7985 N   0  0  0  0  0  0  0  0  0  0  0  0
   17.6158  -39.6779  -15.0006 O   0  0  0  0  0  0  0  0  0  0  0  0
   18.1847  -41.2743  -12.8730 C   0  0  2  0  0  0  0  0  0  0  0  0
   19.5761  -41.2544  -13.5428 C   0  0  0  0  0  0  0  0  0  0  0  0
   17.1951  -42.1053  -13.7282 C   0  0  0  0  0  0  0  0  0  0  0  0
   16.0770  -42.7171  -12.8505 C   0  0  0  0  0  0  0  0  0  0  0  0
   16.7331  -43.3396  -11.6032 C   0  0  0  0  0  0  0  0  0  0  0  0
   15.6900  -43.9599  -10.6625 C   0  0  0  0  0  0  0  0  0  0  0  0
   14.6500  -42.9149  -10.2393 C   0  0  0  0  0  0  0  0  0  0  0  0
   13.9806  -42.2894  -11.4703 C   0  0  0  0  0  0  0  0  0  0  0  0
   15.0230  -41.6765  -12.4169 C   0  0  0  0  0  0  0  0  0  0  0  0
   20.1235  -42.4437  -13.7863 N   0  0  0  0  0  0  0  0  0  0  0  0
   20.2015  -40.2254  -13.7931 O   0  0  0  0  0  0  0  0  0  0  0  0
   21.4343  -42.6967  -14.4114 C   0  0  1  0  0  0  0  0  0  0  0  0
   22.3746  -43.6324  -13.5854 C   0  0  0  0  0  0  0  0  0  0  0  0
   21.1694  -43.3221  -15.8053 C   0  0  0  0  0  0  0  0  0  0  0  0
   20.5674  -42.2310  -16.7220 C   0  0  0  0  0  0  0  0  0  0  0  0
   20.3213  -42.6442  -18.1428 C   0  0  0  0  0  0  0  0  0  0  0  0
   21.4649  -41.7138  -17.8065 C   0  0  0  0  0  0  0  0  0  0  0  0
   22.4976  -43.4011  -12.2744 N   0  0  0  0  0  0  0  0  0  0  0  0
   22.9665  -44.5759  -14.1065 O   0  0  0  0  0  0  0  0  0  0  0  0
   23.3353  -44.1876  -11.3778 C   0  0  0  0  0  0  0  0  0  0  0  0
   15.6071  -34.6091  -10.8816 H   0  0  0  0  0  0  0  0  0  0  0  0
   15.9039  -33.3373   -8.8859 H   0  0  0  0  0  0  0  0  0  0  0  0
   16.0913  -30.9552   -8.9982 H   0  0  0  0  0  0  0  0  0  0  0  0
   15.9661  -29.8447  -11.1126 H   0  0  0  0  0  0  0  0  0  0  0  0
   15.6705  -31.1087  -13.1125 H   0  0  0  0  0  0  0  0  0  0  0  0
   17.9442  -34.6899  -13.1204 H   0  0  0  0  0  0  0  0  0  0  0  0
   18.7416  -36.9192  -13.3268 H   0  0  0  0  0  0  0  0  0  0  0  0
   14.8876  -38.2223  -14.1482 H   0  0  0  0  0  0  0  0  0  0  0  0
   14.0908  -35.9900  -13.9456 H   0  0  0  0  0  0  0  0  0  0  0  0
   17.4800  -39.4892  -11.8999 H   0  0  0  0  0  0  0  0  0  0  0  0
   18.2531  -41.6637  -11.9544 H   0  0  0  0  0  0  0  0  0  0  0  0
   17.6952  -42.8433  -14.1812 H   0  0  0  0  0  0  0  0  0  0  0  0
   16.7808  -41.5112  -14.4176 H   0  0  0  0  0  0  0  0  0  0  0  0
   15.6207  -43.4403  -13.3687 H   0  0  0  0  0  0  0  0  0  0  0  0
   17.2316  -42.6270  -11.1095 H   0  0  0  0  0  0  0  0  0  0  0  0
   17.3713  -44.0523  -11.8943 H   0  0  0  0  0  0  0  0  0  0  0  0
   16.1511  -44.3123   -9.8482 H   0  0  0  0  0  0  0  0  0  0  0  0
   15.2276  -44.7104  -11.1347 H   0  0  0  0  0  0  0  0  0  0  0  0
   15.1022  -42.1966   -9.7107 H   0  0  0  0  0  0  0  0  0  0  0  0
   13.9524  -43.3556   -9.6743 H   0  0  0  0  0  0  0  0  0  0  0  0
   13.3508  -41.5728  -11.1705 H   0  0  0  0  0  0  0  0  0  0  0  0
   13.4715  -42.9973  -11.9600 H   0  0  0  0  0  0  0  0  0  0  0  0
   14.5575  -41.3276  -13.2302 H   0  0  0  0  0  0  0  0  0  0  0  0
   15.4842  -40.9233  -11.9479 H   0  0  0  0  0  0  0  0  0  0  0  0
   19.5914  -43.2467  -13.5179 H   0  0  0  0  0  0  0  0  0  0  0  0
   21.8967  -41.8196  -14.5415 H   0  0  0  0  0  0  0  0  0  0  0  0
   20.5261  -44.0827  -15.7176 H   0  0  0  0  0  0  0  0  0  0  0  0
   22.0280  -43.6550  -16.1950 H   0  0  0  0  0  0  0  0  0  0  0  0
   19.9225  -41.5870  -16.3105 H   0  0  0  0  0  0  0  0  0  0  0  0
   19.5218  -42.2979  -18.6336 H   0  0  0  0  0  0  0  0  0  0  0  0
   20.5081  -43.5835  -18.4306 H   0  0  0  0  0  0  0  0  0  0  0  0
   22.4090  -42.0370  -17.8717 H   0  0  0  0  0  0  0  0  0  0  0  0
   21.4227  -40.7514  -18.0747 H   0  0  0  0  0  0  0  0  0  0  0  0
   21.9813  -42.6391  -11.8836 H   0  0  0  0  0  0  0  0  0  0  0  0
   23.2628  -43.8237  -10.4492 H   0  0  0  0  0  0  0  0  0  0  0  0
   23.0310  -45.1401  -11.3873 H   0  0  0  0  0  0  0  0  0  0  0  0
   24.2867  -44.1384  -11.6818 H   0  0  0  0  0  0  0  0  0  0  0  0
  1  2  2  0  0  0  0
  1  6  1  0  0  0  0
  1 38  1  0  0  0  0
  2  3  1  0  0  0  0
  2 39  1  0  0  0  0
  3  4  2  0  0  0  0
  3 40  1  0  0  0  0
  4  5  1  0  0  0  0
  4 41  1  0  0  0  0
  5  6  2  0  0  0  0
  5 42  1  0  0  0  0
  6  7  1  0  0  0  0
  7  8  2  0  0  0  0
  7  9  1  0  0  0  0
  9 10  2  0  0  0  0
  9 14  1  0  0  0  0
 10 11  1  0  0  0  0
 10 43  1  0  0  0  0
 11 12  2  0  0  0  0
 11 44  1  0  0  0  0
 12 13  1  0  0  0  0
 12 15  1  0  0  0  0
 13 14  2  0  0  0  0
 13 45  1  0  0  0  0
 14 46  1  0  0  0  0
 15 16  1  0  0  0  0
 15 17  2  0  0  0  0
 16 18  1  0  0  0  0
 16 47  1  0  0  0  0
 18 19  1  0  0  0  0
 18 20  1  0  0  0  0
 18 48  1  0  0  0  0
 19 27  1  0  0  0  0
 19 28  2  0  0  0  0
 20 21  1  0  0  0  0
 20 49  1  0  0  0  0
 20 50  1  0  0  0  0
 21 22  1  0  0  0  0
 21 26  1  0  0  0  0
 21 51  1  0  0  0  0
 22 23  1  0  0  0  0
 22 52  1  0  0  0  0
 22 53  1  0  0  0  0
 23 24  1  0  0  0  0
 23 54  1  0  0  0  0
 23 55  1  0  0  0  0
 24 25  1  0  0  0  0
 24 56  1  0  0  0  0
 24 57  1  0  0  0  0
 25 26  1  0  0  0  0
 25 58  1  0  0  0  0
 25 59  1  0  0  0  0
 26 60  1  0  0  0  0
 26 61  1  0  0  0  0
 27 29  1  0  0  0  0
 27 62  1  0  0  0  0
 29 30  1  0  0  0  0
 29 31  1  0  0  0  0
 29 63  1  0  0  0  0
 30 35  1  0  0  0  0
 30 36  2  0  0  0  0
 31 32  1  0  0  0  0
 31 64  1  0  0  0  0
 31 65  1  0  0  0  0
 32 33  1  0  0  0  0
 32 34  1  0  0  0  0
 32 66  1  0  0  0  0
 33 34  1  0  0  0  0
 33 67  1  0  0  0  0
 33 68  1  0  0  0  0
 34 69  1  0  0  0  0
 34 70  1  0  0  0  0
 35 37  1  0  0  0  0
 35 71  1  0  0  0  0
 37 72  1  0  0  0  0
 37 73  1  0  0  0  0
 37 74  1  0  0  0  0
M  END
> <BIOSOLVEIT.HYDE_ESTIMATED_AFFINITY_LOWER_BOUNDARY [nM]>
15459.802535

> <BIOSOLVEIT.HYDE_ESTIMATED_AFFINITY_UPPER_BOUNDARY [nM]>
1536022.787413

> <BIOSOLVEIT.HYDE_LIGAND_EFFICIENCY range: ++, +, 0, -, -->
--

> <BIOSOLVEIT.HYDE_LIGAND_LIPOPHILIC_EFFICIENCY range: ++, +, 0, -, -->
--

> <BIOSOLVEIT.INTER_CLASH range: red, yellow, green>
green

> <BIOSOLVEIT.INTRA_CLASH range: red, yellow, green>
yellow

> <BIOSOLVEIT.LOGP>
4.0173

> <BIOSOLVEIT.MOLECULAR WEIGHT>
503.639

> <BIOSOLVEIT.MOLECULE_CHECKSUM>
LTIxLjc2MDE7MC41ODgxMQ==

> <BIOSOLVEIT.TORSION_QUALITY range: red, yellow, green, not rotatable>
red

> <BIOSOLVEIT.TPSA>
104.37

$$$$
Z757130778.****
b8Hydescor01032215413D 1   1.00000     0.00000     0
Hydescorer 1.1.2 b8048283
 53 56  0  0  0  0            999 V2000
   18.8087  -41.7223  -12.3343 C   0  0  0  0  0  0  0  0  0  0  0  0
   17.4245  -41.6918  -12.4888 C   0  0  0  0  0  0  0  0  0  0  0  0
   16.7653  -40.4675  -12.5044 C   0  0  0  0  0  0  0  0  0  0  0  0
   17.4837  -39.2661  -12.3745 C   0  0  0  0  0  0  0  0  0  0  0  0
   18.8743  -39.3214  -12.1979 C   0  0  0  0  0  0  0  0  0  0  0  0
   19.5393  -40.5424  -12.1781 C   0  0  0  0  0  0  0  0  0  0  0  0
   19.4176  -42.9566  -12.3080 O   0  0  0  0  0  0  0  0  0  0  0  0
   19.8610  -43.6052  -11.1736 C   0  0  0  0  0  0  0  0  0  0  0  0
   19.0272  -44.4869  -10.4854 C   0  0  0  0  0  0  0  0  0  0  0  0
   19.5065  -45.1226   -9.3436 C   0  0  0  0  0  0  0  0  0  0  0  0
   20.8032  -44.8697   -8.8957 C   0  0  0  0  0  0  0  0  0  0  0  0
   21.6236  -43.9788   -9.5867 C   0  0  0  0  0  0  0  0  0  0  0  0
   21.1525  -43.3401  -10.7291 C   0  0  0  0  0  0  0  0  0  0  0  0
   16.8022  -37.9708  -12.3955 C   0  0  0  0  0  0  0  0  0  0  0  0
   16.6826  -37.1829  -11.2916 N   0  0  0  0  0  0  0  0  0  0  0  0
   16.2642  -37.5067  -13.3839 O   0  0  0  0  0  0  0  0  0  0  0  0
   16.0166  -35.8968  -11.2718 C   0  0  0  0  0  0  0  0  0  0  0  0
   15.4396  -35.7276   -9.8636 C   0  0  0  0  0  0  0  0  0  0  0  0
   14.8387  -34.3165   -9.7894 C   0  0  0  0  0  0  0  0  0  0  0  0
   15.9717  -33.3913   -9.9968 N   0  3  0  0  0  0  0  0  0  0  0  0
   16.4225  -33.4686  -11.4048 C   0  0  0  0  0  0  0  0  0  0  0  0
   17.0920  -34.8412  -11.5497 C   0  0  0  0  0  0  0  0  0  0  0  0
   15.5035  -32.0260   -9.7252 C   0  0  0  0  0  0  0  0  0  0  0  0
   16.4139  -31.1636  -10.6119 C   0  0  0  0  0  0  0  0  0  0  0  0
   16.0537  -29.7094  -10.6917 C   0  0  0  0  0  0  0  0  0  0  0  0
   17.2645  -30.1485   -9.9014 C   0  0  0  0  0  0  0  0  0  0  0  0
   16.9093  -42.5431  -12.5877 H   0  0  0  0  0  0  0  0  0  0  0  0
   15.7711  -40.4413  -12.6089 H   0  0  0  0  0  0  0  0  0  0  0  0
   19.3928  -38.4738  -12.0850 H   0  0  0  0  0  0  0  0  0  0  0  0
   20.5309  -40.5753  -12.0531 H   0  0  0  0  0  0  0  0  0  0  0  0
   18.0968  -44.6600  -10.8083 H   0  0  0  0  0  0  0  0  0  0  0  0
   18.9209  -45.7611   -8.8441 H   0  0  0  0  0  0  0  0  0  0  0  0
   21.1456  -45.3289   -8.0761 H   0  0  0  0  0  0  0  0  0  0  0  0
   22.5517  -43.7988   -9.2607 H   0  0  0  0  0  0  0  0  0  0  0  0
   21.7358  -42.6973  -11.2256 H   0  0  0  0  0  0  0  0  0  0  0  0
   17.0815  -37.5145  -10.4366 H   0  0  0  0  0  0  0  0  0  0  0  0
   15.2930  -35.8590  -11.9610 H   0  0  0  0  0  0  0  0  0  0  0  0
   16.1639  -35.8284   -9.1816 H   0  0  0  0  0  0  0  0  0  0  0  0
   14.7294  -36.4121   -9.6992 H   0  0  0  0  0  0  0  0  0  0  0  0
   14.4208  -34.1617   -8.8942 H   0  0  0  0  0  0  0  0  0  0  0  0
   14.1508  -34.1920  -10.5044 H   0  0  0  0  0  0  0  0  0  0  0  0
   17.0768  -32.7386  -11.6023 H   0  0  0  0  0  0  0  0  0  0  0  0
   15.6422  -33.3937  -12.0256 H   0  0  0  0  0  0  0  0  0  0  0  0
   17.4506  -34.9522  -12.4765 H   0  0  0  0  0  0  0  0  0  0  0  0
   17.8387  -34.9302  -10.8905 H   0  0  0  0  0  0  0  0  0  0  0  0
   15.6173  -31.7928   -8.7595 H   0  0  0  0  0  0  0  0  0  0  0  0
   14.5435  -31.9176   -9.9834 H   0  0  0  0  0  0  0  0  0  0  0  0
   16.7943  -31.5894  -11.4328 H   0  0  0  0  0  0  0  0  0  0  0  0
   15.2429  -29.3679  -10.2163 H   0  0  0  0  0  0  0  0  0  0  0  0
   16.1707  -29.2114  -11.5510 H   0  0  0  0  0  0  0  0  0  0  0  0
   18.1835  -29.9421  -10.2374 H   0  0  0  0  0  0  0  0  0  0  0  0
   17.2556  -30.0987   -8.9028 H   0  0  0  0  0  0  0  0  0  0  0  0
   16.7242  -33.6257   -9.3814 H   0  0  0  0  0  0  0  0  0  0  0  0
  1  2  2  0  0  0  0
  1  6  1  0  0  0  0
  1  7  1  0  0  0  0
  2  3  1  0  0  0  0
  2 27  1  0  0  0  0
  3  4  2  0  0  0  0
  3 28  1  0  0  0  0
  4  5  1  0  0  0  0
  4 14  1  0  0  0  0
  5  6  2  0  0  0  0
  5 29  1  0  0  0  0
  6 30  1  0  0  0  0
  7  8  1  0  0  0  0
  8  9  2  0  0  0  0
  8 13  1  0  0  0  0
  9 10  1  0  0  0  0
  9 31  1  0  0  0  0
 10 11  2  0  0  0  0
 10 32  1  0  0  0  0
 11 12  1  0  0  0  0
 11 33  1  0  0  0  0
 12 13  2  0  0  0  0
 12 34  1  0  0  0  0
 13 35  1  0  0  0  0
 14 15  1  0  0  0  0
 14 16  2  0  0  0  0
 15 17  1  0  0  0  0
 15 36  1  0  0  0  0
 17 18  1  0  0  0  0
 17 22  1  0  0  0  0
 17 37  1  0  0  0  0
 18 19  1  0  0  0  0
 18 38  1  0  0  0  0
 18 39  1  0  0  0  0
 19 20  1  0  0  0  0
 19 40  1  0  0  0  0
 19 41  1  0  0  0  0
 20 21  1  0  0  0  0
 20 23  1  0  0  0  0
 20 53  1  0  0  0  0
 21 22  1  0  0  0  0
 21 42  1  0  0  0  0
 21 43  1  0  0  0  0
 22 44  1  0  0  0  0
 22 45  1  0  0  0  0
 23 24  1  0  0  0  0
 23 46  1  0  0  0  0
 23 47  1  0  0  0  0
 24 25  1  0  0  0  0
 24 26  1  0  0  0  0
 24 48  1  0  0  0  0
 25 26  1  0  0  0  0
 25 49  1  0  0  0  0
 25 50  1  0  0  0  0
 26 51  1  0  0  0  0
 26 52  1  0  0  0  0
M  CHG  1  20   1
M  END
> <BIOSOLVEIT.HYDE_ESTIMATED_AFFINITY_LOWER_BOUNDARY [nM]>
146097.671575

> <BIOSOLVEIT.HYDE_ESTIMATED_AFFINITY_UPPER_BOUNDARY [nM]>
14515667.468759

> <BIOSOLVEIT.HYDE_LIGAND_EFFICIENCY range: ++, +, 0, -, -->
--

> <BIOSOLVEIT.HYDE_LIGAND_LIPOPHILIC_EFFICIENCY range: ++, +, 0, -, -->
--

> <BIOSOLVEIT.INTER_CLASH range: red, yellow, green>
green

> <BIOSOLVEIT.INTRA_CLASH range: red, yellow, green>
green

> <BIOSOLVEIT.LOGP>
2.666

> <BIOSOLVEIT.MOLECULAR WEIGHT>
351.467

> <BIOSOLVEIT.MOLECULE_CHECKSUM>
LTE2LjE5MjM7MC42MjI3Nzk=

> <BIOSOLVEIT.TORSION_QUALITY range: red, yellow, green, not rotatable>
yellow

> <BIOSOLVEIT.TPSA>
42.77

$$$$
Z757130778.****
b8Hydescor01032215413D 1   1.00000     0.00000     0
Hydescorer 1.1.2 b8048283
 53 56  0  0  0  0            999 V2000
   15.6423  -34.1792  -10.3828 C   0  0  0  0  0  0  0  0  0  0  0  0
   16.7433  -34.2362  -11.2347 C   0  0  0  0  0  0  0  0  0  0  0  0
   17.3140  -35.4687  -11.5325 C   0  0  0  0  0  0  0  0  0  0  0  0
   16.7850  -36.6524  -10.9893 C   0  0  0  0  0  0  0  0  0  0  0  0
   15.6900  -36.5696  -10.1164 C   0  0  0  0  0  0  0  0  0  0  0  0
   15.1164  -35.3402   -9.8116 C   0  0  0  0  0  0  0  0  0  0  0  0
   15.1200  -32.9368  -10.1025 O   0  0  0  0  0  0  0  0  0  0  0  0
   15.7679  -31.7344  -10.2987 C   0  0  0  0  0  0  0  0  0  0  0  0
   16.7382  -31.2930   -9.3987 C   0  0  0  0  0  0  0  0  0  0  0  0
   17.3705  -30.0740   -9.6264 C   0  0  0  0  0  0  0  0  0  0  0  0
   17.0268  -29.3061  -10.7393 C   0  0  0  0  0  0  0  0  0  0  0  0
   16.0485  -29.7535  -11.6263 C   0  0  0  0  0  0  0  0  0  0  0  0
   15.4126  -30.9710  -11.4063 C   0  0  0  0  0  0  0  0  0  0  0  0
   17.3730  -37.9563  -11.2998 C   0  0  0  0  0  0  0  0  0  0  0  0
   16.8922  -38.7666  -12.2827 N   0  0  0  0  0  0  0  0  0  0  0  0
   18.3131  -38.4352  -10.6924 O   0  0  0  0  0  0  0  0  0  0  0  0
   17.4456  -40.0619  -12.6199 C   0  0  0  0  0  0  0  0  0  0  0  0
   16.3020  -41.0714  -12.4860 C   0  0  0  0  0  0  0  0  0  0  0  0
   16.8412  -42.4287  -12.9603 C   0  0  0  0  0  0  0  0  0  0  0  0
   17.1980  -42.2394  -14.3814 N   0  3  0  0  0  0  0  0  0  0  0  0
   18.3942  -41.3727  -14.4802 C   0  0  0  0  0  0  0  0  0  0  0  0
   17.9234  -39.9705  -14.0729 C   0  0  0  0  0  0  0  0  0  0  0  0
   17.5190  -43.5541  -14.9519 C   0  0  0  0  0  0  0  0  0  0  0  0
   16.1371  -44.1338  -15.2881 C   0  0  0  0  0  0  0  0  0  0  0  0
   16.1335  -45.5368  -15.8195 C   0  0  0  0  0  0  0  0  0  0  0  0
   15.6575  -45.2575  -14.4127 C   0  0  0  0  0  0  0  0  0  0  0  0
   17.1199  -33.3977  -11.6286 H   0  0  0  0  0  0  0  0  0  0  0  0
   18.1081  -35.5135  -12.1387 H   0  0  0  0  0  0  0  0  0  0  0  0
   15.3179  -37.4036   -9.7090 H   0  0  0  0  0  0  0  0  0  0  0  0
   14.3352  -35.2877   -9.1895 H   0  0  0  0  0  0  0  0  0  0  0  0
   16.9763  -31.8453   -8.5999 H   0  0  0  0  0  0  0  0  0  0  0  0
   18.0716  -29.7485   -8.9919 H   0  0  0  0  0  0  0  0  0  0  0  0
   17.4839  -28.4316  -10.9014 H   0  0  0  0  0  0  0  0  0  0  0  0
   15.8037  -29.1987  -12.4213 H   0  0  0  0  0  0  0  0  0  0  0  0
   14.7075  -31.2942  -12.0375 H   0  0  0  0  0  0  0  0  0  0  0  0
   16.1036  -38.4457  -12.8074 H   0  0  0  0  0  0  0  0  0  0  0  0
   18.2022  -40.2966  -12.0096 H   0  0  0  0  0  0  0  0  0  0  0  0
   15.5289  -40.7915  -13.0552 H   0  0  0  0  0  0  0  0  0  0  0  0
   16.0087  -41.1330  -11.5321 H   0  0  0  0  0  0  0  0  0  0  0  0
   16.1393  -43.1349  -12.8676 H   0  0  0  0  0  0  0  0  0  0  0  0
   17.6478  -42.6887  -12.4295 H   0  0  0  0  0  0  0  0  0  0  0  0
   18.7432  -41.3651  -15.4173 H   0  0  0  0  0  0  0  0  0  0  0  0
   19.1102  -41.6941  -13.8604 H   0  0  0  0  0  0  0  0  0  0  0  0
   18.6795  -39.3201  -14.1454 H   0  0  0  0  0  0  0  0  0  0  0  0
   17.1722  -39.6756  -14.6634 H   0  0  0  0  0  0  0  0  0  0  0  0
   17.9967  -44.1274  -14.2862 H   0  0  0  0  0  0  0  0  0  0  0  0
   18.0794  -43.4613  -15.7748 H   0  0  0  0  0  0  0  0  0  0  0  0
   15.4485  -43.5038  -15.6471 H   0  0  0  0  0  0  0  0  0  0  0  0
   16.9977  -46.0173  -15.9692 H   0  0  0  0  0  0  0  0  0  0  0  0
   15.4778  -45.8025  -16.5262 H   0  0  0  0  0  0  0  0  0  0  0  0
   14.6865  -45.3374  -14.1875 H   0  0  0  0  0  0  0  0  0  0  0  0
   16.2064  -45.5523  -13.6306 H   0  0  0  0  0  0  0  0  0  0  0  0
   16.4328  -41.8273  -14.8761 H   0  0  0  0  0  0  0  0  0  0  0  0
  1  2  2  0  0  0  0
  1  6  1  0  0  0  0
  1  7  1  0  0  0  0
  2  3  1  0  0  0  0
  2 27  1  0  0  0  0
  3  4  2  0  0  0  0
  3 28  1  0  0  0  0
  4  5  1  0  0  0  0
  4 14  1  0  0  0  0
  5  6  2  0  0  0  0
  5 29  1  0  0  0  0
  6 30  1  0  0  0  0
  7  8  1  0  0  0  0
  8  9  2  0  0  0  0
  8 13  1  0  0  0  0
  9 10  1  0  0  0  0
  9 31  1  0  0  0  0
 10 11  2  0  0  0  0
 10 32  1  0  0  0  0
 11 12  1  0  0  0  0
 11 33  1  0  0  0  0
 12 13  2  0  0  0  0
 12 34  1  0  0  0  0
 13 35  1  0  0  0  0
 14 15  1  0  0  0  0
 14 16  2  0  0  0  0
 15 17  1  0  0  0  0
 15 36  1  0  0  0  0
 17 18  1  0  0  0  0
 17 22  1  0  0  0  0
 17 37  1  0  0  0  0
 18 19  1  0  0  0  0
 18 38  1  0  0  0  0
 18 39  1  0  0  0  0
 19 20  1  0  0  0  0
 19 40  1  0  0  0  0
 19 41  1  0  0  0  0
 20 21  1  0  0  0  0
 20 23  1  0  0  0  0
 20 53  1  0  0  0  0
 21 22  1  0  0  0  0
 21 42  1  0  0  0  0
 21 43  1  0  0  0  0
 22 44  1  0  0  0  0
 22 45  1  0  0  0  0
 23 24  1  0  0  0  0
 23 46  1  0  0  0  0
 23 47  1  0  0  0  0
 24 25  1  0  0  0  0
 24 26  1  0  0  0  0
 24 48  1  0  0  0  0
 25 26  1  0  0  0  0
 25 49  1  0  0  0  0
 25 50  1  0  0  0  0
 26 51  1  0  0  0  0
 26 52  1  0  0  0  0
M  CHG  1  20   1
M  END
> <BIOSOLVEIT.HYDE_ESTIMATED_AFFINITY_LOWER_BOUNDARY [nM]>
15647.708247

> <BIOSOLVEIT.HYDE_ESTIMATED_AFFINITY_UPPER_BOUNDARY [nM]>
1554692.330885

> <BIOSOLVEIT.HYDE_LIGAND_EFFICIENCY range: ++, +, 0, -, -->
--

> <BIOSOLVEIT.HYDE_LIGAND_LIPOPHILIC_EFFICIENCY range: ++, +, 0, -, -->
--

> <BIOSOLVEIT.INTER_CLASH range: red, yellow, green>
green

> <BIOSOLVEIT.INTRA_CLASH range: red, yellow, green>
green

> <BIOSOLVEIT.LOGP>
2.666

> <BIOSOLVEIT.MOLECULAR WEIGHT>
351.467

> <BIOSOLVEIT.MOLECULE_CHECKSUM>
LTIxLjczMDE7MC44MzU3NzQ=

> <BIOSOLVEIT.TORSION_QUALITY range: red, yellow, green, not rotatable>
yellow

> <BIOSOLVEIT.TPSA>
42.77

$$$$
Z757130778.****
b8Hydescor01032215413D 1   1.00000     0.00000     0
Hydescorer 1.1.2 b8048283
 53 56  0  0  0  0            999 V2000
   18.8838  -41.2024  -14.4178 C   0  0  0  0  0  0  0  0  0  0  0  0
   17.7275  -40.4899  -14.7289 C   0  0  0  0  0  0  0  0  0  0  0  0
   17.2429  -39.5469  -13.8291 C   0  0  0  0  0  0  0  0  0  0  0  0
   17.9134  -39.3028  -12.6178 C   0  0  0  0  0  0  0  0  0  0  0  0
   19.0631  -40.0476  -12.3153 C   0  0  0  0  0  0  0  0  0  0  0  0
   19.5512  -40.9944  -13.2089 C   0  0  0  0  0  0  0  0  0  0  0  0
   19.3179  -42.1375  -15.3300 O   0  0  0  0  0  0  0  0  0  0  0  0
   18.6630  -42.4824  -16.4945 C   0  0  0  0  0  0  0  0  0  0  0  0
   17.6683  -43.4606  -16.4894 C   0  0  0  0  0  0  0  0  0  0  0  0
   17.0294  -43.7851  -17.6827 C   0  0  0  0  0  0  0  0  0  0  0  0
   17.3908  -43.1407  -18.8660 C   0  0  0  0  0  0  0  0  0  0  0  0
   18.3934  -42.1717  -18.8600 C   0  0  0  0  0  0  0  0  0  0  0  0
   19.0360  -41.8410  -17.6715 C   0  0  0  0  0  0  0  0  0  0  0  0
   17.4168  -38.3086  -11.6652 C   0  0  0  0  0  0  0  0  0  0  0  0
   16.8911  -37.1141  -12.0531 N   0  0  0  0  0  0  0  0  0  0  0  0
   17.4588  -38.4512  -10.4569 O   0  0  0  0  0  0  0  0  0  0  0  0
   16.3900  -36.1056  -11.1422 C   0  0  0  0  0  0  0  0  0  0  0  0
   17.6162  -35.3882  -10.5709 C   0  0  0  0  0  0  0  0  0  0  0  0
   17.0980  -34.2348   -9.6996 C   0  0  0  0  0  0  0  0  0  0  0  0
   16.3609  -33.3433  -10.6186 N   0  3  0  0  0  0  0  0  0  0  0  0
   15.1068  -34.0025  -11.0477 C   0  0  0  0  0  0  0  0  0  0  0  0
   15.5372  -35.1446  -11.9772 C   0  0  0  0  0  0  0  0  0  0  0  0
   16.0226  -32.1136   -9.8904 C   0  0  0  0  0  0  0  0  0  0  0  0
   16.4521  -31.0047  -10.8625 C   0  0  0  0  0  0  0  0  0  0  0  0
   15.9368  -29.6311  -10.5488 C   0  0  0  0  0  0  0  0  0  0  0  0
   17.3912  -29.9676  -10.3138 C   0  0  0  0  0  0  0  0  0  0  0  0
   17.2502  -40.6553  -15.5919 H   0  0  0  0  0  0  0  0  0  0  0  0
   16.4100  -39.0378  -14.0456 H   0  0  0  0  0  0  0  0  0  0  0  0
   19.5367  -39.8959  -11.4477 H   0  0  0  0  0  0  0  0  0  0  0  0
   20.3720  -41.5211  -12.9881 H   0  0  0  0  0  0  0  0  0  0  0  0
   17.4173  -43.9229  -15.6389 H   0  0  0  0  0  0  0  0  0  0  0  0
   16.3110  -44.4806  -17.6918 H   0  0  0  0  0  0  0  0  0  0  0  0
   16.9291  -43.3745  -19.7217 H   0  0  0  0  0  0  0  0  0  0  0  0
   18.6508  -41.7141  -19.7110 H   0  0  0  0  0  0  0  0  0  0  0  0
   19.7585  -41.1496  -17.6630 H   0  0  0  0  0  0  0  0  0  0  0  0
   16.8480  -36.9199  -13.0331 H   0  0  0  0  0  0  0  0  0  0  0  0
   15.8476  -36.5217  -10.4123 H   0  0  0  0  0  0  0  0  0  0  0  0
   18.1812  -35.0298  -11.3141 H   0  0  0  0  0  0  0  0  0  0  0  0
   18.1567  -36.0211  -10.0166 H   0  0  0  0  0  0  0  0  0  0  0  0
   17.8614  -33.7464   -9.2768 H   0  0  0  0  0  0  0  0  0  0  0  0
   16.4888  -34.5823   -8.9867 H   0  0  0  0  0  0  0  0  0  0  0  0
   14.5224  -33.3555  -11.5375 H   0  0  0  0  0  0  0  0  0  0  0  0
   14.6139  -34.3637  -10.2561 H   0  0  0  0  0  0  0  0  0  0  0  0
   14.7323  -35.6200  -12.3323 H   0  0  0  0  0  0  0  0  0  0  0  0
   16.0741  -34.7831  -12.7394 H   0  0  0  0  0  0  0  0  0  0  0  0
   16.5302  -32.0541   -9.0309 H   0  0  0  0  0  0  0  0  0  0  0  0
   15.0416  -32.0660   -9.7021 H   0  0  0  0  0  0  0  0  0  0  0  0
   16.5503  -31.2505  -11.8268 H   0  0  0  0  0  0  0  0  0  0  0  0
   15.3234  -29.4922   -9.7713 H   0  0  0  0  0  0  0  0  0  0  0  0
   15.6802  -29.0115  -11.2907 H   0  0  0  0  0  0  0  0  0  0  0  0
   18.0979  -29.5717  -10.9001 H   0  0  0  0  0  0  0  0  0  0  0  0
   17.7410  -30.0524   -9.3808 H   0  0  0  0  0  0  0  0  0  0  0  0
   16.9258  -33.1272  -11.4150 H   0  0  0  0  0  0  0  0  0  0  0  0
  1  2  2  0  0  0  0
  1  6  1  0  0  0  0
  1  7  1  0  0  0  0
  2  3  1  0  0  0  0
  2 27  1  0  0  0  0
  3  4  2  0  0  0  0
  3 28  1  0  0  0  0
  4  5  1  0  0  0  0
  4 14  1  0  0  0  0
  5  6  2  0  0  0  0
  5 29  1  0  0  0  0
  6 30  1  0  0  0  0
  7  8  1  0  0  0  0
  8  9  2  0  0  0  0
  8 13  1  0  0  0  0
  9 10  1  0  0  0  0
  9 31  1  0  0  0  0
 10 11  2  0  0  0  0
 10 32  1  0  0  0  0
 11 12  1  0  0  0  0
 11 33  1  0  0  0  0
 12 13  2  0  0  0  0
 12 34  1  0  0  0  0
 13 35  1  0  0  0  0
 14 15  1  0  0  0  0
 14 16  2  0  0  0  0
 15 17  1  0  0  0  0
 15 36  1  0  0  0  0
 17 18  1  0  0  0  0
 17 22  1  0  0  0  0
 17 37  1  0  0  0  0
 18 19  1  0  0  0  0
 18 38  1  0  0  0  0
 18 39  1  0  0  0  0
 19 20  1  0  0  0  0
 19 40  1  0  0  0  0
 19 41  1  0  0  0  0
 20 21  1  0  0  0  0
 20 23  1  0  0  0  0
 20 53  1  0  0  0  0
 21 22  1  0  0  0  0
 21 42  1  0  0  0  0
 21 43  1  0  0  0  0
 22 44  1  0  0  0  0
 22 45  1  0  0  0  0
 23 24  1  0  0  0  0
 23 46  1  0  0  0  0
 23 47  1  0  0  0  0
 24 25  1  0  0  0  0
 24 26  1  0  0  0  0
 24 48  1  0  0  0  0
 25 26  1  0  0  0  0
 25 49  1  0  0  0  0
 25 50  1  0  0  0  0
 26 51  1  0  0  0  0
 26 52  1  0  0  0  0
M  CHG  1  20   1
M  END
> <BIOSOLVEIT.HYDE_ESTIMATED_AFFINITY_LOWER_BOUNDARY [nM]>
5757208.400463

> <BIOSOLVEIT.HYDE_ESTIMATED_AFFINITY_UPPER_BOUNDARY [nM]>
572012693.895955

> <BIOSOLVEIT.HYDE_LIGAND_EFFICIENCY range: ++, +, 0, -, -->
--

> <BIOSOLVEIT.HYDE_LIGAND_LIPOPHILIC_EFFICIENCY range: ++, +, 0, -, -->
--

> <BIOSOLVEIT.INTER_CLASH range: red, yellow, green>
green

> <BIOSOLVEIT.INTRA_CLASH range: red, yellow, green>
green

> <BIOSOLVEIT.LOGP>
2.666

> <BIOSOLVEIT.MOLECULAR WEIGHT>
351.467

> <BIOSOLVEIT.MOLECULE_CHECKSUM>
LTcuMDg0NzM7MC4yNzI0OQ==

> <BIOSOLVEIT.TORSION_QUALITY range: red, yellow, green, not rotatable>
green

> <BIOSOLVEIT.TPSA>
42.77

$$$$
Z757130778.****
b8Hydescor01032215413D 1   1.00000     0.00000     0
Hydescorer 1.1.2 b8048283
 53 56  0  0  0  0            999 V2000
   16.1220  -34.8518  -11.5179 C   0  0  0  0  0  0  0  0  0  0  0  0
   17.3479  -34.5887  -12.1253 C   0  0  0  0  0  0  0  0  0  0  0  0
   17.8732  -35.5051  -13.0298 C   0  0  0  0  0  0  0  0  0  0  0  0
   17.1749  -36.6850  -13.3402 C   0  0  0  0  0  0  0  0  0  0  0  0
   15.9530  -36.9401  -12.7000 C   0  0  0  0  0  0  0  0  0  0  0  0
   15.4236  -36.0297  -11.7922 C   0  0  0  0  0  0  0  0  0  0  0  0
   15.6480  -33.9253  -10.6168 O   0  0  0  0  0  0  0  0  0  0  0  0
   15.9766  -32.5853  -10.6007 C   0  0  0  0  0  0  0  0  0  0  0  0
   16.6027  -32.0186   -9.4902 C   0  0  0  0  0  0  0  0  0  0  0  0
   16.9182  -30.6630   -9.5072 C   0  0  0  0  0  0  0  0  0  0  0  0
   16.6017  -29.8863  -10.6218 C   0  0  0  0  0  0  0  0  0  0  0  0
   15.9669  -30.4620  -11.7217 C   0  0  0  0  0  0  0  0  0  0  0  0
   15.6491  -31.8163  -11.7129 C   0  0  0  0  0  0  0  0  0  0  0  0
   17.7143  -37.6544  -14.2949 C   0  0  0  0  0  0  0  0  0  0  0  0
   19.0423  -37.9415  -14.3835 N   0  0  0  0  0  0  0  0  0  0  0  0
   17.0323  -38.2579  -15.1029 O   0  0  0  0  0  0  0  0  0  0  0  0
   19.6140  -38.8932  -15.3137 C   0  0  0  0  0  0  0  0  0  0  0  0
   19.8978  -38.1214  -16.6055 C   0  0  0  0  0  0  0  0  0  0  0  0
   20.6184  -39.0866  -17.5580 C   0  0  0  0  0  0  0  0  0  0  0  0
   21.8828  -39.4416  -16.8813 N   0  3  0  0  0  0  0  0  0  0  0  0
   21.5941  -40.3064  -15.7148 C   0  0  0  0  0  0  0  0  0  0  0  0
   20.9168  -39.3956  -14.6828 C   0  0  0  0  0  0  0  0  0  0  0  0
   22.7152  -40.1919  -17.8307 C   0  0  0  0  0  0  0  0  0  0  0  0
   24.1200  -40.0881  -17.2187 C   0  0  0  0  0  0  0  0  0  0  0  0
   25.2144  -40.7694  -17.9861 C   0  0  0  0  0  0  0  0  0  0  0  0
   25.1171  -39.2614  -17.9810 C   0  0  0  0  0  0  0  0  0  0  0  0
   17.8458  -33.7480  -11.9126 H   0  0  0  0  0  0  0  0  0  0  0  0
   18.7557  -35.3230  -13.4633 H   0  0  0  0  0  0  0  0  0  0  0  0
   15.4575  -37.7856  -12.8987 H   0  0  0  0  0  0  0  0  0  0  0  0
   14.5514  -36.2166  -11.3401 H   0  0  0  0  0  0  0  0  0  0  0  0
   16.8222  -32.5795   -8.6919 H   0  0  0  0  0  0  0  0  0  0  0  0
   17.3721  -30.2456   -8.7199 H   0  0  0  0  0  0  0  0  0  0  0  0
   16.8309  -28.9130  -10.6322 H   0  0  0  0  0  0  0  0  0  0  0  0
   15.7398  -29.9008  -12.5175 H   0  0  0  0  0  0  0  0  0  0  0  0
   15.1901  -32.2327  -12.4977 H   0  0  0  0  0  0  0  0  0  0  0  0
   19.6650  -37.4631  -13.7645 H   0  0  0  0  0  0  0  0  0  0  0  0
   18.9835  -39.6509  -15.4819 H   0  0  0  0  0  0  0  0  0  0  0  0
   20.4797  -37.3315  -16.4125 H   0  0  0  0  0  0  0  0  0  0  0  0
   19.0400  -37.8113  -17.0154 H   0  0  0  0  0  0  0  0  0  0  0  0
   20.8042  -38.6398  -18.4331 H   0  0  0  0  0  0  0  0  0  0  0  0
   20.0636  -39.9041  -17.7123 H   0  0  0  0  0  0  0  0  0  0  0  0
   22.4417  -40.6852  -15.3430 H   0  0  0  0  0  0  0  0  0  0  0  0
   20.9821  -41.0526  -15.9766 H   0  0  0  0  0  0  0  0  0  0  0  0
   20.7181  -39.9102  -13.8487 H   0  0  0  0  0  0  0  0  0  0  0  0
   21.5125  -38.6228  -14.4637 H   0  0  0  0  0  0  0  0  0  0  0  0
   22.6877  -39.7755  -18.7394 H   0  0  0  0  0  0  0  0  0  0  0  0
   22.4197  -41.1453  -17.8918 H   0  0  0  0  0  0  0  0  0  0  0  0
   24.1886  -40.0879  -16.2210 H   0  0  0  0  0  0  0  0  0  0  0  0
   24.9985  -41.2819  -18.8172 H   0  0  0  0  0  0  0  0  0  0  0  0
   25.9592  -41.2243  -17.4980 H   0  0  0  0  0  0  0  0  0  0  0  0
   25.7969  -38.7174  -17.4891 H   0  0  0  0  0  0  0  0  0  0  0  0
   24.8360  -38.7749  -18.8083 H   0  0  0  0  0  0  0  0  0  0  0  0
   22.3591  -38.6134  -16.5860 H   0  0  0  0  0  0  0  0  0  0  0  0
  1  2  2  0  0  0  0
  1  6  1  0  0  0  0
  1  7  1  0  0  0  0
  2  3  1  0  0  0  0
  2 27  1  0  0  0  0
  3  4  2  0  0  0  0
  3 28  1  0  0  0  0
  4  5  1  0  0  0  0
  4 14  1  0  0  0  0
  5  6  2  0  0  0  0
  5 29  1  0  0  0  0
  6 30  1  0  0  0  0
  7  8  1  0  0  0  0
  8  9  2  0  0  0  0
  8 13  1  0  0  0  0
  9 10  1  0  0  0  0
  9 31  1  0  0  0  0
 10 11  2  0  0  0  0
 10 32  1  0  0  0  0
 11 12  1  0  0  0  0
 11 33  1  0  0  0  0
 12 13  2  0  0  0  0
 12 34  1  0  0  0  0
 13 35  1  0  0  0  0
 14 15  1  0  0  0  0
 14 16  2  0  0  0  0
 15 17  1  0  0  0  0
 15 36  1  0  0  0  0
 17 18  1  0  0  0  0
 17 22  1  0  0  0  0
 17 37  1  0  0  0  0
 18 19  1  0  0  0  0
 18 38  1  0  0  0  0
 18 39  1  0  0  0  0
 19 20  1  0  0  0  0
 19 40  1  0  0  0  0
 19 41  1  0  0  0  0
 20 21  1  0  0  0  0
 20 23  1  0  0  0  0
 20 53  1  0  0  0  0
 21 22  1  0  0  0  0
 21 42  1  0  0  0  0
 21 43  1  0  0  0  0
 22 44  1  0  0  0  0
 22 45  1  0  0  0  0
 23 24  1  0  0  0  0
 23 46  1  0  0  0  0
 23 47  1  0  0  0  0
 24 25  1  0  0  0  0
 24 26  1  0  0  0  0
 24 48  1  0  0  0  0
 25 26  1  0  0  0  0
 25 49  1  0  0  0  0
 25 50  1  0  0  0  0
 26 51  1  0  0  0  0
 26 52  1  0  0  0  0
M  CHG  1  20   1
M  END
> <BIOSOLVEIT.HYDE_ESTIMATED_AFFINITY_LOWER_BOUNDARY [nM]>
14472.804118

> <BIOSOLVEIT.HYDE_ESTIMATED_AFFINITY_UPPER_BOUNDARY [nM]>
1437958.659148

> <BIOSOLVEIT.HYDE_LIGAND_EFFICIENCY range: ++, +, 0, -, -->
-

> <BIOSOLVEIT.HYDE_LIGAND_LIPOPHILIC_EFFICIENCY range: ++, +, 0, -, -->
--

> <BIOSOLVEIT.INTER_CLASH range: red, yellow, green>
green

> <BIOSOLVEIT.INTRA_CLASH range: red, yellow, green>
green

> <BIOSOLVEIT.LOGP>
2.666

> <BIOSOLVEIT.MOLECULAR WEIGHT>
351.467

> <BIOSOLVEIT.MOLECULE_CHECKSUM>
LTIxLjkyMzY7MC44NDMyMTY=

> <BIOSOLVEIT.TORSION_QUALITY range: red, yellow, green, not rotatable>
green

> <BIOSOLVEIT.TPSA>
42.77

$$$$
Z757130778.****
b8Hydescor01032215413D 1   1.00000     0.00000     0
Hydescorer 1.1.2 b8048283
 53 56  0  0  0  0            999 V2000
   15.8417  -34.3494  -10.3178 C   0  0  0  0  0  0  0  0  0  0  0  0
   15.2712  -35.5215   -9.8261 C   0  0  0  0  0  0  0  0  0  0  0  0
   15.7839  -36.7510  -10.2252 C   0  0  0  0  0  0  0  0  0  0  0  0
   16.8741  -36.8185  -11.1103 C   0  0  0  0  0  0  0  0  0  0  0  0
   17.4185  -35.6261  -11.6102 C   0  0  0  0  0  0  0  0  0  0  0  0
   16.9086  -34.3936  -11.2179 C   0  0  0  0  0  0  0  0  0  0  0  0
   15.2917  -33.1555   -9.9090 O   0  0  0  0  0  0  0  0  0  0  0  0
   15.8167  -31.9050  -10.1628 C   0  0  0  0  0  0  0  0  0  0  0  0
   16.8039  -31.3660   -9.3374 C   0  0  0  0  0  0  0  0  0  0  0  0
   17.3099  -30.1009   -9.6215 C   0  0  0  0  0  0  0  0  0  0  0  0
   16.8248  -29.3843  -10.7158 C   0  0  0  0  0  0  0  0  0  0  0  0
   15.8309  -29.9296  -11.5276 C   0  0  0  0  0  0  0  0  0  0  0  0
   15.3207  -31.1938  -11.2508 C   0  0  0  0  0  0  0  0  0  0  0  0
   17.4267  -38.1061  -11.5332 C   0  0  0  0  0  0  0  0  0  0  0  0
   17.1051  -38.6927  -12.7190 N   0  0  0  0  0  0  0  0  0  0  0  0
   18.1897  -38.7692  -10.8547 O   0  0  0  0  0  0  0  0  0  0  0  0
   17.6299  -39.9642  -13.1726 C   0  0  0  0  0  0  0  0  0  0  0  0
   16.4590  -40.7139  -13.8143 C   0  0  0  0  0  0  0  0  0  0  0  0
   17.0266  -42.0100  -14.4107 C   0  0  0  0  0  0  0  0  0  0  0  0
   17.9924  -41.5820  -15.4435 N   0  3  0  0  0  0  0  0  0  0  0  0
   19.1817  -40.9871  -14.7926 C   0  0  0  0  0  0  0  0  0  0  0  0
   18.7091  -39.6476  -14.2134 C   0  0  0  0  0  0  0  0  0  0  0  0
   18.4121  -42.7699  -16.1983 C   0  0  0  0  0  0  0  0  0  0  0  0
   19.2576  -42.1782  -17.3358 C   0  0  0  0  0  0  0  0  0  0  0  0
   19.8294  -43.1713  -18.3039 C   0  0  0  0  0  0  0  0  0  0  0  0
   18.6782  -42.2845  -18.7184 C   0  0  0  0  0  0  0  0  0  0  0  0
   14.4996  -35.4790   -9.1915 H   0  0  0  0  0  0  0  0  0  0  0  0
   15.3733  -37.5948   -9.8795 H   0  0  0  0  0  0  0  0  0  0  0  0
   18.1816  -35.6631  -12.2555 H   0  0  0  0  0  0  0  0  0  0  0  0
   17.3019  -33.5471  -11.5767 H   0  0  0  0  0  0  0  0  0  0  0  0
   17.1438  -31.8823   -8.5513 H   0  0  0  0  0  0  0  0  0  0  0  0
   18.0216  -29.7055   -9.0409 H   0  0  0  0  0  0  0  0  0  0  0  0
   17.1912  -28.4762  -10.9187 H   0  0  0  0  0  0  0  0  0  0  0  0
   15.4845  -29.4115  -12.3095 H   0  0  0  0  0  0  0  0  0  0  0  0
   14.6049  -31.5872  -11.8278 H   0  0  0  0  0  0  0  0  0  0  0  0
   16.4630  -38.2133  -13.3172 H   0  0  0  0  0  0  0  0  0  0  0  0
   18.0121  -40.4853  -12.4094 H   0  0  0  0  0  0  0  0  0  0  0  0
   16.0479  -40.1558  -14.5350 H   0  0  0  0  0  0  0  0  0  0  0  0
   15.7684  -40.9276  -13.1233 H   0  0  0  0  0  0  0  0  0  0  0  0
   16.2954  -42.5550  -14.8210 H   0  0  0  0  0  0  0  0  0  0  0  0
   17.4865  -42.5475  -13.7039 H   0  0  0  0  0  0  0  0  0  0  0  0
   19.9094  -40.8402  -15.4626 H   0  0  0  0  0  0  0  0  0  0  0  0
   19.5157  -41.5842  -14.0633 H   0  0  0  0  0  0  0  0  0  0  0  0
   19.4745  -39.1716  -13.7803 H   0  0  0  0  0  0  0  0  0  0  0  0
   18.3283  -39.0749  -14.9394 H   0  0  0  0  0  0  0  0  0  0  0  0
   17.6211  -43.2644  -16.5585 H   0  0  0  0  0  0  0  0  0  0  0  0
   18.9574  -43.3839  -15.6276 H   0  0  0  0  0  0  0  0  0  0  0  0
   19.8071  -41.3690  -17.1280 H   0  0  0  0  0  0  0  0  0  0  0  0
   19.6812  -44.1501  -18.1627 H   0  0  0  0  0  0  0  0  0  0  0  0
   20.7391  -43.0245  -18.6925 H   0  0  0  0  0  0  0  0  0  0  0  0
   18.8252  -41.5500  -19.3808 H   0  0  0  0  0  0  0  0  0  0  0  0
   17.7674  -42.6755  -18.8510 H   0  0  0  0  0  0  0  0  0  0  0  0
   17.5674  -40.9168  -16.0573 H   0  0  0  0  0  0  0  0  0  0  0  0
  1  2  2  0  0  0  0
  1  6  1  0  0  0  0
  1  7  1  0  0  0  0
  2  3  1  0  0  0  0
  2 27  1  0  0  0  0
  3  4  2  0  0  0  0
  3 28  1  0  0  0  0
  4  5  1  0  0  0  0
  4 14  1  0  0  0  0
  5  6  2  0  0  0  0
  5 29  1  0  0  0  0
  6 30  1  0  0  0  0
  7  8  1  0  0  0  0
  8  9  2  0  0  0  0
  8 13  1  0  0  0  0
  9 10  1  0  0  0  0
  9 31  1  0  0  0  0
 10 11  2  0  0  0  0
 10 32  1  0  0  0  0
 11 12  1  0  0  0  0
 11 33  1  0  0  0  0
 12 13  2  0  0  0  0
 12 34  1  0  0  0  0
 13 35  1  0  0  0  0
 14 15  1  0  0  0  0
 14 16  2  0  0  0  0
 15 17  1  0  0  0  0
 15 36  1  0  0  0  0
 17 18  1  0  0  0  0
 17 22  1  0  0  0  0
 17 37  1  0  0  0  0
 18 19  1  0  0  0  0
 18 38  1  0  0  0  0
 18 39  1  0  0  0  0
 19 20  1  0  0  0  0
 19 40  1  0  0  0  0
 19 41  1  0  0  0  0
 20 21  1  0  0  0  0
 20 23  1  0  0  0  0
 20 53  1  0  0  0  0
 21 22  1  0  0  0  0
 21 42  1  0  0  0  0
 21 43  1  0  0  0  0
 22 44  1  0  0  0  0
 22 45  1  0  0  0  0
 23 24  1  0  0  0  0
 23 46  1  0  0  0  0
 23 47  1  0  0  0  0
 24 25  1  0  0  0  0
 24 26  1  0  0  0  0
 24 48  1  0  0  0  0
 25 26  1  0  0  0  0
 25 49  1  0  0  0  0
 25 50  1  0  0  0  0
 26 51  1  0  0  0  0
 26 52  1  0  0  0  0
M  CHG  1  20   1
M  END
> <BIOSOLVEIT.HYDE_ESTIMATED_AFFINITY_LOWER_BOUNDARY [nM]>
140327.483197

> <BIOSOLVEIT.HYDE_ESTIMATED_AFFINITY_UPPER_BOUNDARY [nM]>
13942365.137366

> <BIOSOLVEIT.HYDE_LIGAND_EFFICIENCY range: ++, +, 0, -, -->
--

> <BIOSOLVEIT.HYDE_LIGAND_LIPOPHILIC_EFFICIENCY range: ++, +, 0, -, -->
--

> <BIOSOLVEIT.INTER_CLASH range: red, yellow, green>
green

> <BIOSOLVEIT.INTRA_CLASH range: red, yellow, green>
green

> <BIOSOLVEIT.LOGP>
2.666

> <BIOSOLVEIT.MOLECULAR WEIGHT>
351.467

> <BIOSOLVEIT.MOLECULE_CHECKSUM>
LTE2LjI5MjE7MC42MjY2MjE=

> <BIOSOLVEIT.TORSION_QUALITY range: red, yellow, green, not rotatable>
yellow

> <BIOSOLVEIT.TPSA>
42.77

$$$$
Z757130778.****
b8Hydescor01032215413D 1   1.00000     0.00000     0
Hydescorer 1.1.2 b8048283
 53 56  0  0  0  0            999 V2000
   19.7921  -41.6863  -11.7992 C   0  0  0  0  0  0  0  0  0  0  0  0
   18.4669  -41.7641  -12.2221 C   0  0  0  0  0  0  0  0  0  0  0  0
   17.7809  -40.5968  -12.5389 C   0  0  0  0  0  0  0  0  0  0  0  0
   18.4152  -39.3458  -12.4441 C   0  0  0  0  0  0  0  0  0  0  0  0
   19.7429  -39.2892  -11.9949 C   0  0  0  0  0  0  0  0  0  0  0  0
   20.4338  -40.4522  -11.6732 C   0  0  0  0  0  0  0  0  0  0  0  0
   20.4270  -42.8654  -11.4802 O   0  0  0  0  0  0  0  0  0  0  0  0
   21.1563  -43.6430  -12.3561 C   0  0  0  0  0  0  0  0  0  0  0  0
   21.7383  -44.8382  -11.9326 C   0  0  0  0  0  0  0  0  0  0  0  0
   22.4691  -45.5970  -12.8424 C   0  0  0  0  0  0  0  0  0  0  0  0
   22.6192  -45.1564  -14.1576 C   0  0  0  0  0  0  0  0  0  0  0  0
   22.0411  -43.9553  -14.5663 C   0  0  0  0  0  0  0  0  0  0  0  0
   21.3084  -43.1917  -13.6634 C   0  0  0  0  0  0  0  0  0  0  0  0
   17.7060  -38.1105  -12.7806 C   0  0  0  0  0  0  0  0  0  0  0  0
   17.2557  -37.2384  -11.8367 N   0  0  0  0  0  0  0  0  0  0  0  0
   17.4348  -37.7760  -13.9193 O   0  0  0  0  0  0  0  0  0  0  0  0
   16.5507  -36.0074  -12.1292 C   0  0  0  0  0  0  0  0  0  0  0  0
   15.5694  -35.7838  -10.9752 C   0  0  0  0  0  0  0  0  0  0  0  0
   14.9036  -34.4198  -11.2077 C   0  0  0  0  0  0  0  0  0  0  0  0
   15.9984  -33.4294  -11.1524 N   0  3  0  0  0  0  0  0  0  0  0  0
   16.8549  -33.5709  -12.3516 C   0  0  0  0  0  0  0  0  0  0  0  0
   17.6053  -34.8964  -12.1695 C   0  0  0  0  0  0  0  0  0  0  0  0
   15.4021  -32.0872  -11.1539 C   0  0  0  0  0  0  0  0  0  0  0  0
   16.6280  -31.1622  -11.1727 C   0  0  0  0  0  0  0  0  0  0  0  0
   16.3347  -29.6937  -11.0836 C   0  0  0  0  0  0  0  0  0  0  0  0
   16.9219  -30.4231   -9.8976 C   0  0  0  0  0  0  0  0  0  0  0  0
   18.0129  -42.6520  -12.2971 H   0  0  0  0  0  0  0  0  0  0  0  0
   16.8276  -40.6476  -12.8369 H   0  0  0  0  0  0  0  0  0  0  0  0
   20.1974  -38.4029  -11.9050 H   0  0  0  0  0  0  0  0  0  0  0  0
   21.3806  -40.4055  -11.3548 H   0  0  0  0  0  0  0  0  0  0  0  0
   21.6317  -45.1460  -10.9871 H   0  0  0  0  0  0  0  0  0  0  0  0
   22.8868  -46.4583  -12.5532 H   0  0  0  0  0  0  0  0  0  0  0  0
   23.1434  -45.7042  -14.8096 H   0  0  0  0  0  0  0  0  0  0  0  0
   22.1532  -43.6424  -15.5094 H   0  0  0  0  0  0  0  0  0  0  0  0
   20.8954  -42.3275  -13.9509 H   0  0  0  0  0  0  0  0  0  0  0  0
   17.4232  -37.4629  -10.8768 H   0  0  0  0  0  0  0  0  0  0  0  0
   16.0667  -36.0720  -13.0019 H   0  0  0  0  0  0  0  0  0  0  0  0
   16.0594  -35.7824  -10.1035 H   0  0  0  0  0  0  0  0  0  0  0  0
   14.8780  -36.5063  -10.9678 H   0  0  0  0  0  0  0  0  0  0  0  0
   14.2287  -34.2345  -10.4935 H   0  0  0  0  0  0  0  0  0  0  0  0
   14.4572  -34.3972  -12.1022 H   0  0  0  0  0  0  0  0  0  0  0  0
   17.5007  -32.8097  -12.4110 H   0  0  0  0  0  0  0  0  0  0  0  0
   16.2945  -33.5980  -13.1794 H   0  0  0  0  0  0  0  0  0  0  0  0
   18.2310  -35.0447  -12.9354 H   0  0  0  0  0  0  0  0  0  0  0  0
   18.1228  -34.8831  -11.3140 H   0  0  0  0  0  0  0  0  0  0  0  0
   14.8521  -31.9377  -10.3322 H   0  0  0  0  0  0  0  0  0  0  0  0
   14.8343  -31.9474  -11.9650 H   0  0  0  0  0  0  0  0  0  0  0  0
   17.4078  -31.4427  -11.7324 H   0  0  0  0  0  0  0  0  0  0  0  0
   15.3878  -29.3735  -11.0552 H   0  0  0  0  0  0  0  0  0  0  0  0
   16.8924  -29.0401  -11.5952 H   0  0  0  0  0  0  0  0  0  0  0  0
   17.8687  -30.2534   -9.6240 H   0  0  0  0  0  0  0  0  0  0  0  0
   16.3641  -30.5868   -9.0840 H   0  0  0  0  0  0  0  0  0  0  0  0
   16.5420  -33.5634  -10.3238 H   0  0  0  0  0  0  0  0  0  0  0  0
  1  2  2  0  0  0  0
  1  6  1  0  0  0  0
  1  7  1  0  0  0  0
  2  3  1  0  0  0  0
  2 27  1  0  0  0  0
  3  4  2  0  0  0  0
  3 28  1  0  0  0  0
  4  5  1  0  0  0  0
  4 14  1  0  0  0  0
  5  6  2  0  0  0  0
  5 29  1  0  0  0  0
  6 30  1  0  0  0  0
  7  8  1  0  0  0  0
  8  9  2  0  0  0  0
  8 13  1  0  0  0  0
  9 10  1  0  0  0  0
  9 31  1  0  0  0  0
 10 11  2  0  0  0  0
 10 32  1  0  0  0  0
 11 12  1  0  0  0  0
 11 33  1  0  0  0  0
 12 13  2  0  0  0  0
 12 34  1  0  0  0  0
 13 35  1  0  0  0  0
 14 15  1  0  0  0  0
 14 16  2  0  0  0  0
 15 17  1  0  0  0  0
 15 36  1  0  0  0  0
 17 18  1  0  0  0  0
 17 22  1  0  0  0  0
 17 37  1  0  0  0  0
 18 19  1  0  0  0  0
 18 38  1  0  0  0  0
 18 39  1  0  0  0  0
 19 20  1  0  0  0  0
 19 40  1  0  0  0  0
 19 41  1  0  0  0  0
 20 21  1  0  0  0  0
 20 23  1  0  0  0  0
 20 53  1  0  0  0  0
 21 22  1  0  0  0  0
 21 42  1  0  0  0  0
 21 43  1  0  0  0  0
 22 44  1  0  0  0  0
 22 45  1  0  0  0  0
 23 24  1  0  0  0  0
 23 46  1  0  0  0  0
 23 47  1  0  0  0  0
 24 25  1  0  0  0  0
 24 26  1  0  0  0  0
 24 48  1  0  0  0  0
 25 26  1  0  0  0  0
 25 49  1  0  0  0  0
 25 50  1  0  0  0  0
 26 51  1  0  0  0  0
 26 52  1  0  0  0  0
M  CHG  1  20   1
M  END
> <BIOSOLVEIT.HYDE_ESTIMATED_AFFINITY_LOWER_BOUNDARY [nM]>
2920363.915655

> <BIOSOLVEIT.HYDE_ESTIMATED_AFFINITY_UPPER_BOUNDARY [nM]>
290155421.578262

> <BIOSOLVEIT.HYDE_LIGAND_EFFICIENCY range: ++, +, 0, -, -->
--

> <BIOSOLVEIT.HYDE_LIGAND_LIPOPHILIC_EFFICIENCY range: ++, +, 0, -, -->
--

> <BIOSOLVEIT.INTER_CLASH range: red, yellow, green>
green

> <BIOSOLVEIT.INTRA_CLASH range: red, yellow, green>
green

> <BIOSOLVEIT.LOGP>
2.666

> <BIOSOLVEIT.MOLECULAR WEIGHT>
351.467

> <BIOSOLVEIT.MOLECULE_CHECKSUM>
LTguNzY3MzE7MC4zMzcyMDQ=

> <BIOSOLVEIT.TORSION_QUALITY range: red, yellow, green, not rotatable>
yellow

> <BIOSOLVEIT.TPSA>
42.77

$$$$
PV-001799426692.****
b8Hydescor01032215413D 1   1.00000     0.00000     0
Hydescorer 1.1.2 b8048283
 55 58  0  0  0  0            999 V2000
   19.8043  -39.7221  -12.9106 C   0  0  0  0  0  0  0  0  0  0  0  0
   18.5428  -39.4581  -12.3905 C   0  0  0  0  0  0  0  0  0  0  0  0
   18.2534  -38.2187  -11.8020 C   0  0  0  0  0  0  0  0  0  0  0  0
   19.2744  -37.2552  -11.7389 C   0  0  0  0  0  0  0  0  0  0  0  0
   20.5337  -37.5227  -12.2619 C   0  0  0  0  0  0  0  0  0  0  0  0
   20.8152  -38.7579  -12.8563 C   0  0  0  0  0  0  0  0  0  0  0  0
   22.1390  -39.0342  -13.4059 C   0  0  0  0  0  0  0  0  0  0  0  0
   16.9099  -37.9626  -11.2681 C   0  0  0  0  0  0  0  0  0  0  0  0
   16.0784  -37.0716  -11.9017 N   0  0  0  0  0  0  0  0  0  0  0  0
   16.4657  -38.5106  -10.2688 O   0  0  0  0  0  0  0  0  0  0  0  0
   14.7125  -36.7774  -11.4034 C   0  0  1  0  0  0  0  0  0  0  0  0
   14.7555  -35.7699  -10.2376 C   0  0  0  0  0  0  0  0  0  0  0  0
   15.1205  -34.5491  -10.9610 N   0  3  1  0  0  0  0  0  0  0  0  0
   14.1874  -34.4946  -12.0948 C   0  0  0  0  0  0  0  0  0  0  0  0
   14.0046  -35.9717  -12.4978 C   0  0  0  0  0  0  0  0  0  0  0  0
   14.9585  -33.3799  -10.0782 C   0  0  0  0  0  0  0  0  0  0  0  0
   16.0167  -32.3540  -10.5316 C   0  0  0  0  0  0  0  0  0  0  0  0
   15.4423  -31.2905  -11.4768 C   0  0  0  0  0  0  0  0  0  0  0  0
   16.3970  -30.1029  -11.3283 C   0  0  0  0  0  0  0  0  0  0  0  0
   17.1039  -30.2878   -9.9804 C   0  0  0  0  0  0  0  0  0  0  0  0
   16.4497  -31.5086   -9.3332 C   0  0  0  0  0  0  0  0  0  0  0  0
   22.2889  -39.8804  -14.5105 C   0  0  0  0  0  0  0  0  0  0  0  0
   23.5502  -40.1429  -15.0353 C   0  0  0  0  0  0  0  0  0  0  0  0
   24.6779  -39.5620  -14.4624 C   0  0  0  0  0  0  0  0  0  0  0  0
   24.5421  -38.7202  -13.3630 C   0  0  0  0  0  0  0  0  0  0  0  0
   23.2818  -38.4579  -12.8373 C   0  0  0  0  0  0  0  0  0  0  0  0
   19.9909  -40.6113  -13.3282 H   0  0  0  0  0  0  0  0  0  0  0  0
   17.8327  -40.1608  -12.4365 H   0  0  0  0  0  0  0  0  0  0  0  0
   19.0930  -36.3686  -11.3134 H   0  0  0  0  0  0  0  0  0  0  0  0
   21.2474  -36.8241  -12.2130 H   0  0  0  0  0  0  0  0  0  0  0  0
   16.4042  -36.6066  -12.7249 H   0  0  0  0  0  0  0  0  0  0  0  0
   14.2116  -37.6091  -11.1643 H   0  0  0  0  0  0  0  0  0  0  0  0
   15.4466  -36.0185   -9.5589 H   0  0  0  0  0  0  0  0  0  0  0  0
   13.8653  -35.6830   -9.7905 H   0  0  0  0  0  0  0  0  0  0  0  0
   14.5754  -33.9655  -12.8495 H   0  0  0  0  0  0  0  0  0  0  0  0
   13.3153  -34.0909  -11.8185 H   0  0  0  0  0  0  0  0  0  0  0  0
   13.0336  -36.2076  -12.5343 H   0  0  0  0  0  0  0  0  0  0  0  0
   14.4239  -36.1465  -13.3887 H   0  0  0  0  0  0  0  0  0  0  0  0
   15.1131  -33.6403   -9.1251 H   0  0  0  0  0  0  0  0  0  0  0  0
   14.0397  -32.9968  -10.1742 H   0  0  0  0  0  0  0  0  0  0  0  0
   16.8025  -32.8125  -10.9467 H   0  0  0  0  0  0  0  0  0  0  0  0
   14.5146  -31.0363  -11.2032 H   0  0  0  0  0  0  0  0  0  0  0  0
   15.4326  -31.6221  -12.4202 H   0  0  0  0  0  0  0  0  0  0  0  0
   15.8855  -29.2438  -11.3364 H   0  0  0  0  0  0  0  0  0  0  0  0
   17.0651  -30.1001  -12.0725 H   0  0  0  0  0  0  0  0  0  0  0  0
   16.9768  -29.4788   -9.4064 H   0  0  0  0  0  0  0  0  0  0  0  0
   18.0813  -30.4483  -10.1185 H   0  0  0  0  0  0  0  0  0  0  0  0
   17.1040  -32.0050   -8.7625 H   0  0  0  0  0  0  0  0  0  0  0  0
   15.6609  -31.2410   -8.7801 H   0  0  0  0  0  0  0  0  0  0  0  0
   21.4821  -40.3002  -14.9263 H   0  0  0  0  0  0  0  0  0  0  0  0
   23.6468  -40.7492  -15.8247 H   0  0  0  0  0  0  0  0  0  0  0  0
   25.5845  -39.7496  -14.8404 H   0  0  0  0  0  0  0  0  0  0  0  0
   25.3519  -38.3032  -12.9504 H   0  0  0  0  0  0  0  0  0  0  0  0
   23.1906  -37.8527  -12.0464 H   0  0  0  0  0  0  0  0  0  0  0  0
   16.0632  -34.6085  -11.2894 H   0  0  0  0  0  0  0  0  0  0  0  0
  1  2  2  0  0  0  0
  1  6  1  0  0  0  0
  1 27  1  0  0  0  0
  2  3  1  0  0  0  0
  2 28  1  0  0  0  0
  3  4  2  0  0  0  0
  3  8  1  0  0  0  0
  4  5  1  0  0  0  0
  4 29  1  0  0  0  0
  5  6  2  0  0  0  0
  5 30  1  0  0  0  0
  6  7  1  0  0  0  0
  7 22  2  0  0  0  0
  7 26  1  0  0  0  0
  8  9  1  0  0  0  0
  8 10  2  0  0  0  0
  9 11  1  0  0  0  0
  9 31  1  0  0  0  0
 11 12  1  0  0  0  0
 11 15  1  0  0  0  0
 11 32  1  0  0  0  0
 12 13  1  0  0  0  0
 12 33  1  0  0  0  0
 12 34  1  0  0  0  0
 13 14  1  0  0  0  0
 13 16  1  0  0  0  0
 13 55  1  0  0  0  0
 14 15  1  0  0  0  0
 14 35  1  0  0  0  0
 14 36  1  0  0  0  0
 15 37  1  0  0  0  0
 15 38  1  0  0  0  0
 16 17  1  0  0  0  0
 16 39  1  0  0  0  0
 16 40  1  0  0  0  0
 17 18  1  0  0  0  0
 17 21  1  0  0  0  0
 17 41  1  0  0  0  0
 18 19  1  0  0  0  0
 18 42  1  0  0  0  0
 18 43  1  0  0  0  0
 19 20  1  0  0  0  0
 19 44  1  0  0  0  0
 19 45  1  0  0  0  0
 20 21  1  0  0  0  0
 20 46  1  0  0  0  0
 20 47  1  0  0  0  0
 21 48  1  0  0  0  0
 21 49  1  0  0  0  0
 22 23  1  0  0  0  0
 22 50  1  0  0  0  0
 23 24  2  0  0  0  0
 23 51  1  0  0  0  0
 24 25  1  0  0  0  0
 24 52  1  0  0  0  0
 25 26  2  0  0  0  0
 25 53  1  0  0  0  0
 26 54  1  0  0  0  0
M  CHG  1  13   1
M  END
> <BIOSOLVEIT.HYDE_ESTIMATED_AFFINITY_LOWER_BOUNDARY [nM]>
106315.029994

> <BIOSOLVEIT.HYDE_ESTIMATED_AFFINITY_UPPER_BOUNDARY [nM]>
10563026.814101

> <BIOSOLVEIT.HYDE_LIGAND_EFFICIENCY range: ++, +, 0, -, -->
--

> <BIOSOLVEIT.HYDE_LIGAND_LIPOPHILIC_EFFICIENCY range: ++, +, 0, -, -->
--

> <BIOSOLVEIT.INTER_CLASH range: red, yellow, green>
green

> <BIOSOLVEIT.INTRA_CLASH range: red, yellow, green>
green

> <BIOSOLVEIT.LOGP>
2.9308

> <BIOSOLVEIT.MOLECULAR WEIGHT>
349.495

> <BIOSOLVEIT.MOLECULE_CHECKSUM>
LTE2Ljk4MDI7MC42NTMwODY=

> <BIOSOLVEIT.TORSION_QUALITY range: red, yellow, green, not rotatable>
yellow

> <BIOSOLVEIT.TPSA>
33.54

$$$$
PV-001799426692.****
b8Hydescor01032215413D 1   1.00000     0.00000     0
Hydescorer 1.1.2 b8048283
 55 58  0  0  0  0            999 V2000
   20.3847  -37.8601  -11.6756 C   0  0  0  0  0  0  0  0  0  0  0  0
   19.3135  -36.9776  -11.7489 C   0  0  0  0  0  0  0  0  0  0  0  0
   18.9732  -36.3603  -12.9611 C   0  0  0  0  0  0  0  0  0  0  0  0
   19.7503  -36.6456  -14.0966 C   0  0  0  0  0  0  0  0  0  0  0  0
   20.8193  -37.5301  -14.0191 C   0  0  0  0  0  0  0  0  0  0  0  0
   21.1496  -38.1506  -12.8092 C   0  0  0  0  0  0  0  0  0  0  0  0
   22.2723  -39.0804  -12.7326 C   0  0  0  0  0  0  0  0  0  0  0  0
   17.8313  -35.4388  -13.0130 C   0  0  0  0  0  0  0  0  0  0  0  0
   16.7077  -35.6963  -12.2662 N   0  0  0  0  0  0  0  0  0  0  0  0
   17.8152  -34.4229  -13.6940 O   0  0  0  0  0  0  0  0  0  0  0  0
   15.5276  -34.7977  -12.2829 C   0  0  1  0  0  0  0  0  0  0  0  0
   14.3837  -35.4047  -13.1191 C   0  0  0  0  0  0  0  0  0  0  0  0
   13.9643  -36.4953  -12.2350 N   0  3  1  0  0  0  0  0  0  0  0  0
   13.8091  -35.8669  -10.9159 C   0  0  0  0  0  0  0  0  0  0  0  0
   14.9359  -34.8154  -10.8695 C   0  0  0  0  0  0  0  0  0  0  0  0
   12.6891  -37.0603  -12.7116 C   0  0  0  0  0  0  0  0  0  0  0  0
   13.0454  -38.3916  -13.4036 C   0  0  0  0  0  0  0  0  0  0  0  0
   14.2447  -38.2628  -14.3519 C   0  0  0  0  0  0  0  0  0  0  0  0
   14.7983  -39.6868  -14.4506 C   0  0  0  0  0  0  0  0  0  0  0  0
   14.2978  -40.4280  -13.2054 C   0  0  0  0  0  0  0  0  0  0  0  0
   13.5727  -39.3791  -12.3620 C   0  0  0  0  0  0  0  0  0  0  0  0
   22.2662  -40.1294  -11.8061 C   0  0  0  0  0  0  0  0  0  0  0  0
   23.3355  -41.0163  -11.7338 C   0  0  0  0  0  0  0  0  0  0  0  0
   24.4245  -40.8657  -12.5872 C   0  0  0  0  0  0  0  0  0  0  0  0
   24.4433  -39.8260  -13.5116 C   0  0  0  0  0  0  0  0  0  0  0  0
   23.3751  -38.9385  -13.5841 C   0  0  0  0  0  0  0  0  0  0  0  0
   20.6108  -38.2920  -10.8024 H   0  0  0  0  0  0  0  0  0  0  0  0
   18.7789  -36.7803  -10.9271 H   0  0  0  0  0  0  0  0  0  0  0  0
   19.5320  -36.2079  -14.9688 H   0  0  0  0  0  0  0  0  0  0  0  0
   21.3589  -37.7256  -14.8380 H   0  0  0  0  0  0  0  0  0  0  0  0
   16.6846  -36.5155  -11.6931 H   0  0  0  0  0  0  0  0  0  0  0  0
   15.7626  -33.8726  -12.5814 H   0  0  0  0  0  0  0  0  0  0  0  0
   14.7106  -35.7472  -13.9999 H   0  0  0  0  0  0  0  0  0  0  0  0
   13.6462  -34.7465  -13.2703 H   0  0  0  0  0  0  0  0  0  0  0  0
   13.9213  -36.5408  -10.1856 H   0  0  0  0  0  0  0  0  0  0  0  0
   12.9128  -35.4314  -10.8327 H   0  0  0  0  0  0  0  0  0  0  0  0
   14.5672  -33.9165  -10.6324 H   0  0  0  0  0  0  0  0  0  0  0  0
   15.6322  -35.0768  -10.2011 H   0  0  0  0  0  0  0  0  0  0  0  0
   12.2542  -36.4368  -13.3612 H   0  0  0  0  0  0  0  0  0  0  0  0
   12.0721  -37.2233  -11.9418 H   0  0  0  0  0  0  0  0  0  0  0  0
   12.2519  -38.7680  -13.8818 H   0  0  0  0  0  0  0  0  0  0  0  0
   14.9305  -37.6408  -13.9743 H   0  0  0  0  0  0  0  0  0  0  0  0
   13.9533  -37.9323  -15.2497 H   0  0  0  0  0  0  0  0  0  0  0  0
   15.7980  -39.6697  -14.4653 H   0  0  0  0  0  0  0  0  0  0  0  0
   14.4603  -40.1334  -15.2791 H   0  0  0  0  0  0  0  0  0  0  0  0
   15.0675  -40.8133  -12.6963 H   0  0  0  0  0  0  0  0  0  0  0  0
   13.6696  -41.1614  -13.4654 H   0  0  0  0  0  0  0  0  0  0  0  0
   12.8213  -39.7912  -11.8466 H   0  0  0  0  0  0  0  0  0  0  0  0
   14.2036  -38.9296  -11.7296 H   0  0  0  0  0  0  0  0  0  0  0  0
   21.4862  -40.2425  -11.1906 H   0  0  0  0  0  0  0  0  0  0  0  0
   23.3217  -41.7624  -11.0681 H   0  0  0  0  0  0  0  0  0  0  0  0
   25.1925  -41.5042  -12.5362 H   0  0  0  0  0  0  0  0  0  0  0  0
   25.2258  -39.7167  -14.1245 H   0  0  0  0  0  0  0  0  0  0  0  0
   23.3947  -38.1927  -14.2499 H   0  0  0  0  0  0  0  0  0  0  0  0
   14.6679  -37.2052  -12.2011 H   0  0  0  0  0  0  0  0  0  0  0  0
  1  2  2  0  0  0  0
  1  6  1  0  0  0  0
  1 27  1  0  0  0  0
  2  3  1  0  0  0  0
  2 28  1  0  0  0  0
  3  4  2  0  0  0  0
  3  8  1  0  0  0  0
  4  5  1  0  0  0  0
  4 29  1  0  0  0  0
  5  6  2  0  0  0  0
  5 30  1  0  0  0  0
  6  7  1  0  0  0  0
  7 22  2  0  0  0  0
  7 26  1  0  0  0  0
  8  9  1  0  0  0  0
  8 10  2  0  0  0  0
  9 11  1  0  0  0  0
  9 31  1  0  0  0  0
 11 12  1  0  0  0  0
 11 15  1  0  0  0  0
 11 32  1  0  0  0  0
 12 13  1  0  0  0  0
 12 33  1  0  0  0  0
 12 34  1  0  0  0  0
 13 14  1  0  0  0  0
 13 16  1  0  0  0  0
 13 55  1  0  0  0  0
 14 15  1  0  0  0  0
 14 35  1  0  0  0  0
 14 36  1  0  0  0  0
 15 37  1  0  0  0  0
 15 38  1  0  0  0  0
 16 17  1  0  0  0  0
 16 39  1  0  0  0  0
 16 40  1  0  0  0  0
 17 18  1  0  0  0  0
 17 21  1  0  0  0  0
 17 41  1  0  0  0  0
 18 19  1  0  0  0  0
 18 42  1  0  0  0  0
 18 43  1  0  0  0  0
 19 20  1  0  0  0  0
 19 44  1  0  0  0  0
 19 45  1  0  0  0  0
 20 21  1  0  0  0  0
 20 46  1  0  0  0  0
 20 47  1  0  0  0  0
 21 48  1  0  0  0  0
 21 49  1  0  0  0  0
 22 23  1  0  0  0  0
 22 50  1  0  0  0  0
 23 24  2  0  0  0  0
 23 51  1  0  0  0  0
 24 25  1  0  0  0  0
 24 52  1  0  0  0  0
 25 26  2  0  0  0  0
 25 53  1  0  0  0  0
 26 54  1  0  0  0  0
M  CHG  1  13   1
M  END
> <BIOSOLVEIT.HYDE_ESTIMATED_AFFINITY_LOWER_BOUNDARY [nM]>
467790122.434220

> <BIOSOLVEIT.HYDE_ESTIMATED_AFFINITY_UPPER_BOUNDARY [nM]>
46477714457.931824

> <BIOSOLVEIT.HYDE_LIGAND_EFFICIENCY range: ++, +, 0, -, -->
--

> <BIOSOLVEIT.HYDE_LIGAND_LIPOPHILIC_EFFICIENCY range: ++, +, 0, -, -->
--

> <BIOSOLVEIT.INTER_CLASH range: red, yellow, green>
green

> <BIOSOLVEIT.INTRA_CLASH range: red, yellow, green>
green

> <BIOSOLVEIT.LOGP>
2.9308

> <BIOSOLVEIT.MOLECULAR WEIGHT>
349.495

> <BIOSOLVEIT.MOLECULE_CHECKSUM>
My44MTY2NTsw

> <BIOSOLVEIT.TORSION_QUALITY range: red, yellow, green, not rotatable>
green

> <BIOSOLVEIT.TPSA>
33.54

$$$$
PV-001799426692.****
b8Hydescor01032215413D 1   1.00000     0.00000     0
Hydescorer 1.1.2 b8048283
 55 58  0  0  0  0            999 V2000
   21.0454  -37.4567  -13.2513 C   0  0  0  0  0  0  0  0  0  0  0  0
   20.0368  -37.5017  -12.2961 C   0  0  0  0  0  0  0  0  0  0  0  0
   18.7313  -37.8745  -12.6472 C   0  0  0  0  0  0  0  0  0  0  0  0
   18.4654  -38.1880  -13.9911 C   0  0  0  0  0  0  0  0  0  0  0  0
   19.4774  -38.1435  -14.9423 C   0  0  0  0  0  0  0  0  0  0  0  0
   20.7806  -37.7796  -14.5854 C   0  0  0  0  0  0  0  0  0  0  0  0
   21.8411  -37.7357  -15.5876 C   0  0  0  0  0  0  0  0  0  0  0  0
   17.6863  -37.9226  -11.6171 C   0  0  0  0  0  0  0  0  0  0  0  0
   16.5029  -37.2524  -11.8088 N   0  0  0  0  0  0  0  0  0  0  0  0
   17.8007  -38.5430  -10.5691 O   0  0  0  0  0  0  0  0  0  0  0  0
   15.4156  -37.2687  -10.7998 C   0  0  1  0  0  0  0  0  0  0  0  0
   15.5729  -36.1059   -9.8002 C   0  0  0  0  0  0  0  0  0  0  0  0
   15.2181  -34.9733  -10.6595 N   0  3  1  0  0  0  0  0  0  0  0  0
   13.9593  -35.3739  -11.3031 C   0  0  0  0  0  0  0  0  0  0  0  0
   14.1242  -36.8898  -11.5323 C   0  0  0  0  0  0  0  0  0  0  0  0
   15.0374  -33.7627   -9.8383 C   0  0  0  0  0  0  0  0  0  0  0  0
   16.0182  -32.7151  -10.4024 C   0  0  0  0  0  0  0  0  0  0  0  0
   15.3848  -31.8368  -11.4896 C   0  0  0  0  0  0  0  0  0  0  0  0
   16.2310  -30.5610  -11.4801 C   0  0  0  0  0  0  0  0  0  0  0  0
   16.9102  -30.5078  -10.1066 C   0  0  0  0  0  0  0  0  0  0  0  0
   16.3423  -31.6876   -9.3173 C   0  0  0  0  0  0  0  0  0  0  0  0
   23.1768  -37.9345  -15.2200 C   0  0  0  0  0  0  0  0  0  0  0  0
   24.1874  -37.8940  -16.1751 C   0  0  0  0  0  0  0  0  0  0  0  0
   23.8754  -37.6543  -17.5101 C   0  0  0  0  0  0  0  0  0  0  0  0
   22.5515  -37.4535  -17.8879 C   0  0  0  0  0  0  0  0  0  0  0  0
   21.5406  -37.4931  -16.9338 C   0  0  0  0  0  0  0  0  0  0  0  0
   21.9706  -37.1905  -12.9812 H   0  0  0  0  0  0  0  0  0  0  0  0
   20.2446  -37.2654  -11.3470 H   0  0  0  0  0  0  0  0  0  0  0  0
   17.5389  -38.4457  -14.2654 H   0  0  0  0  0  0  0  0  0  0  0  0
   19.2719  -38.3744  -15.8933 H   0  0  0  0  0  0  0  0  0  0  0  0
   16.3700  -36.7371  -12.6554 H   0  0  0  0  0  0  0  0  0  0  0  0
   15.3420  -38.1536  -10.3398 H   0  0  0  0  0  0  0  0  0  0  0  0
   16.5109  -36.0336   -9.4611 H   0  0  0  0  0  0  0  0  0  0  0  0
   14.9449  -36.1949   -9.0271 H   0  0  0  0  0  0  0  0  0  0  0  0
   13.8358  -34.8943  -12.1719 H   0  0  0  0  0  0  0  0  0  0  0  0
   13.1795  -35.1874  -10.7057 H   0  0  0  0  0  0  0  0  0  0  0  0
   13.3457  -37.3887  -11.1516 H   0  0  0  0  0  0  0  0  0  0  0  0
   14.2032  -37.0902  -12.5089 H   0  0  0  0  0  0  0  0  0  0  0  0
   15.2502  -33.9575   -8.8807 H   0  0  0  0  0  0  0  0  0  0  0  0
   14.0965  -33.4316   -9.9099 H   0  0  0  0  0  0  0  0  0  0  0  0
   16.8520  -33.1527  -10.7391 H   0  0  0  0  0  0  0  0  0  0  0  0
   14.4312  -31.6318  -11.2692 H   0  0  0  0  0  0  0  0  0  0  0  0
   15.4315  -32.2870  -12.3813 H   0  0  0  0  0  0  0  0  0  0  0  0
   15.6491  -29.7582  -11.6102 H   0  0  0  0  0  0  0  0  0  0  0  0
   16.9184  -30.5956  -12.2055 H   0  0  0  0  0  0  0  0  0  0  0  0
   16.6980  -29.6459   -9.6461 H   0  0  0  0  0  0  0  0  0  0  0  0
   17.9012  -30.5984  -10.2041 H   0  0  0  0  0  0  0  0  0  0  0  0
   17.0186  -32.0470   -8.6745 H   0  0  0  0  0  0  0  0  0  0  0  0
   15.5174  -31.4209   -8.8188 H   0  0  0  0  0  0  0  0  0  0  0  0
   23.4068  -38.1073  -14.2622 H   0  0  0  0  0  0  0  0  0  0  0  0
   25.1388  -38.0371  -15.9023 H   0  0  0  0  0  0  0  0  0  0  0  0
   24.6018  -37.6265  -18.1969 H   0  0  0  0  0  0  0  0  0  0  0  0
   22.3266  -37.2804  -18.8469 H   0  0  0  0  0  0  0  0  0  0  0  0
   20.5910  -37.3471  -17.2112 H   0  0  0  0  0  0  0  0  0  0  0  0
   15.9280  -34.8235  -11.3478 H   0  0  0  0  0  0  0  0  0  0  0  0
  1  2  2  0  0  0  0
  1  6  1  0  0  0  0
  1 27  1  0  0  0  0
  2  3  1  0  0  0  0
  2 28  1  0  0  0  0
  3  4  2  0  0  0  0
  3  8  1  0  0  0  0
  4  5  1  0  0  0  0
  4 29  1  0  0  0  0
  5  6  2  0  0  0  0
  5 30  1  0  0  0  0
  6  7  1  0  0  0  0
  7 22  2  0  0  0  0
  7 26  1  0  0  0  0
  8  9  1  0  0  0  0
  8 10  2  0  0  0  0
  9 11  1  0  0  0  0
  9 31  1  0  0  0  0
 11 12  1  0  0  0  0
 11 15  1  0  0  0  0
 11 32  1  0  0  0  0
 12 13  1  0  0  0  0
 12 33  1  0  0  0  0
 12 34  1  0  0  0  0
 13 14  1  0  0  0  0
 13 16  1  0  0  0  0
 13 55  1  0  0  0  0
 14 15  1  0  0  0  0
 14 35  1  0  0  0  0
 14 36  1  0  0  0  0
 15 37  1  0  0  0  0
 15 38  1  0  0  0  0
 16 17  1  0  0  0  0
 16 39  1  0  0  0  0
 16 40  1  0  0  0  0
 17 18  1  0  0  0  0
 17 21  1  0  0  0  0
 17 41  1  0  0  0  0
 18 19  1  0  0  0  0
 18 42  1  0  0  0  0
 18 43  1  0  0  0  0
 19 20  1  0  0  0  0
 19 44  1  0  0  0  0
 19 45  1  0  0  0  0
 20 21  1  0  0  0  0
 20 46  1  0  0  0  0
 20 47  1  0  0  0  0
 21 48  1  0  0  0  0
 21 49  1  0  0  0  0
 22 23  1  0  0  0  0
 22 50  1  0  0  0  0
 23 24  2  0  0  0  0
 23 51  1  0  0  0  0
 24 25  1  0  0  0  0
 24 52  1  0  0  0  0
 25 26  2  0  0  0  0
 25 53  1  0  0  0  0
 26 54  1  0  0  0  0
M  CHG  1  13   1
M  END
> <BIOSOLVEIT.HYDE_ESTIMATED_AFFINITY_LOWER_BOUNDARY [nM]>
12749.908087

> <BIOSOLVEIT.HYDE_ESTIMATED_AFFINITY_UPPER_BOUNDARY [nM]>
1266778.751909

> <BIOSOLVEIT.HYDE_LIGAND_EFFICIENCY range: ++, +, 0, -, -->
-

> <BIOSOLVEIT.HYDE_LIGAND_LIPOPHILIC_EFFICIENCY range: ++, +, 0, -, -->
--

> <BIOSOLVEIT.INTER_CLASH range: red, yellow, green>
green

> <BIOSOLVEIT.INTRA_CLASH range: red, yellow, green>
green

> <BIOSOLVEIT.LOGP>
2.9308

> <BIOSOLVEIT.MOLECULAR WEIGHT>
349.495

> <BIOSOLVEIT.MOLECULE_CHECKSUM>
LTIyLjIzNzg7MC44NTUz

> <BIOSOLVEIT.TORSION_QUALITY range: red, yellow, green, not rotatable>
yellow

> <BIOSOLVEIT.TPSA>
33.54

$$$$
PV-001799426692.****
b8Hydescor01032215413D 1   1.00000     0.00000     0
Hydescorer 1.1.2 b8048283
 55 58  0  0  0  0            999 V2000
   18.8313  -42.7369  -11.8356 C   0  0  0  0  0  0  0  0  0  0  0  0
   17.7453  -42.1310  -12.4563 C   0  0  0  0  0  0  0  0  0  0  0  0
   17.7641  -40.7624  -12.7615 C   0  0  0  0  0  0  0  0  0  0  0  0
   18.9024  -40.0163  -12.4120 C   0  0  0  0  0  0  0  0  0  0  0  0
   19.9868  -40.6266  -11.7933 C   0  0  0  0  0  0  0  0  0  0  0  0
   19.9670  -41.9945  -11.4988 C   0  0  0  0  0  0  0  0  0  0  0  0
   21.1089  -42.6320  -10.8503 C   0  0  0  0  0  0  0  0  0  0  0  0
   16.6072  -40.1490  -13.4255 C   0  0  0  0  0  0  0  0  0  0  0  0
   15.7190  -39.3950  -12.6981 N   0  0  0  0  0  0  0  0  0  0  0  0
   16.3770  -40.2639  -14.6214 O   0  0  0  0  0  0  0  0  0  0  0  0
   14.5349  -38.7541  -13.3205 C   0  0  1  0  0  0  0  0  0  0  0  0
   13.6891  -38.0147  -12.2651 C   0  0  0  0  0  0  0  0  0  0  0  0
   14.5703  -36.8814  -11.9716 N   0  3  1  0  0  0  0  0  0  0  0  0
   14.9398  -36.3458  -13.2890 C   0  0  0  0  0  0  0  0  0  0  0  0
   15.0565  -37.5982  -14.1809 C   0  0  0  0  0  0  0  0  0  0  0  0
   13.8432  -35.8795  -11.1715 C   0  0  0  0  0  0  0  0  0  0  0  0
   14.8381  -35.3849  -10.1022 C   0  0  0  0  0  0  0  0  0  0  0  0
   15.3207  -36.5105   -9.1779 C   0  0  0  0  0  0  0  0  0  0  0  0
   16.6604  -36.0028   -8.6379 C   0  0  0  0  0  0  0  0  0  0  0  0
   17.1485  -34.9425   -9.6319 C   0  0  0  0  0  0  0  0  0  0  0  0
   16.1394  -34.9551  -10.7804 C   0  0  0  0  0  0  0  0  0  0  0  0
   22.3936  -42.0920  -10.9788 C   0  0  0  0  0  0  0  0  0  0  0  0
   23.4818  -42.6988  -10.3597 C   0  0  0  0  0  0  0  0  0  0  0  0
   23.2991  -43.8531   -9.6041 C   0  0  0  0  0  0  0  0  0  0  0  0
   22.0270  -44.4006   -9.4701 C   0  0  0  0  0  0  0  0  0  0  0  0
   20.9387  -43.7952  -10.0891 C   0  0  0  0  0  0  0  0  0  0  0  0
   18.8000  -43.7145  -11.6278 H   0  0  0  0  0  0  0  0  0  0  0  0
   16.9407  -42.6777  -12.6879 H   0  0  0  0  0  0  0  0  0  0  0  0
   18.9324  -39.0366  -12.6104 H   0  0  0  0  0  0  0  0  0  0  0  0
   20.7910  -40.0818  -11.5557 H   0  0  0  0  0  0  0  0  0  0  0  0
   15.8756  -39.2743  -11.7179 H   0  0  0  0  0  0  0  0  0  0  0  0
   13.9909  -39.4035  -13.8518 H   0  0  0  0  0  0  0  0  0  0  0  0
   13.5309  -38.5799  -11.4554 H   0  0  0  0  0  0  0  0  0  0  0  0
   12.8114  -37.7141  -12.6385 H   0  0  0  0  0  0  0  0  0  0  0  0
   15.8123  -35.8594  -13.2431 H   0  0  0  0  0  0  0  0  0  0  0  0
   14.2320  -35.7288  -13.6333 H   0  0  0  0  0  0  0  0  0  0  0  0
   14.4991  -37.4951  -15.0048 H   0  0  0  0  0  0  0  0  0  0  0  0
   16.0092  -37.7563  -14.4404 H   0  0  0  0  0  0  0  0  0  0  0  0
   13.0443  -36.2953  -10.7369 H   0  0  0  0  0  0  0  0  0  0  0  0
   13.5494  -35.1192  -11.7508 H   0  0  0  0  0  0  0  0  0  0  0  0
   14.4469  -34.6322   -9.5726 H   0  0  0  0  0  0  0  0  0  0  0  0
   15.4436  -37.3613   -9.6889 H   0  0  0  0  0  0  0  0  0  0  0  0
   14.6715  -36.6605   -8.4323 H   0  0  0  0  0  0  0  0  0  0  0  0
   17.3183  -36.7537   -8.5813 H   0  0  0  0  0  0  0  0  0  0  0  0
   16.5378  -35.5980   -7.7318 H   0  0  0  0  0  0  0  0  0  0  0  0
   18.0616  -35.1738   -9.9677 H   0  0  0  0  0  0  0  0  0  0  0  0
   17.1712  -34.0420   -9.1977 H   0  0  0  0  0  0  0  0  0  0  0  0
   16.0481  -34.0459  -11.1867 H   0  0  0  0  0  0  0  0  0  0  0  0
   16.4086  -35.6102  -11.4863 H   0  0  0  0  0  0  0  0  0  0  0  0
   22.5306  -41.2626  -11.5203 H   0  0  0  0  0  0  0  0  0  0  0  0
   24.3959  -42.3052  -10.4578 H   0  0  0  0  0  0  0  0  0  0  0  0
   24.0810  -44.2884   -9.1581 H   0  0  0  0  0  0  0  0  0  0  0  0
   21.8952  -45.2306   -8.9279 H   0  0  0  0  0  0  0  0  0  0  0  0
   20.0270  -44.1938   -9.9898 H   0  0  0  0  0  0  0  0  0  0  0  0
   15.3850  -37.1924  -11.4819 H   0  0  0  0  0  0  0  0  0  0  0  0
  1  2  2  0  0  0  0
  1  6  1  0  0  0  0
  1 27  1  0  0  0  0
  2  3  1  0  0  0  0
  2 28  1  0  0  0  0
  3  4  2  0  0  0  0
  3  8  1  0  0  0  0
  4  5  1  0  0  0  0
  4 29  1  0  0  0  0
  5  6  2  0  0  0  0
  5 30  1  0  0  0  0
  6  7  1  0  0  0  0
  7 22  2  0  0  0  0
  7 26  1  0  0  0  0
  8  9  1  0  0  0  0
  8 10  2  0  0  0  0
  9 11  1  0  0  0  0
  9 31  1  0  0  0  0
 11 12  1  0  0  0  0
 11 15  1  0  0  0  0
 11 32  1  0  0  0  0
 12 13  1  0  0  0  0
 12 33  1  0  0  0  0
 12 34  1  0  0  0  0
 13 14  1  0  0  0  0
 13 16  1  0  0  0  0
 13 55  1  0  0  0  0
 14 15  1  0  0  0  0
 14 35  1  0  0  0  0
 14 36  1  0  0  0  0
 15 37  1  0  0  0  0
 15 38  1  0  0  0  0
 16 17  1  0  0  0  0
 16 39  1  0  0  0  0
 16 40  1  0  0  0  0
 17 18  1  0  0  0  0
 17 21  1  0  0  0  0
 17 41  1  0  0  0  0
 18 19  1  0  0  0  0
 18 42  1  0  0  0  0
 18 43  1  0  0  0  0
 19 20  1  0  0  0  0
 19 44  1  0  0  0  0
 19 45  1  0  0  0  0
 20 21  1  0  0  0  0
 20 46  1  0  0  0  0
 20 47  1  0  0  0  0
 21 48  1  0  0  0  0
 21 49  1  0  0  0  0
 22 23  1  0  0  0  0
 22 50  1  0  0  0  0
 23 24  2  0  0  0  0
 23 51  1  0  0  0  0
 24 25  1  0  0  0  0
 24 52  1  0  0  0  0
 25 26  2  0  0  0  0
 25 53  1  0  0  0  0
 26 54  1  0  0  0  0
M  CHG  1  13   1
M  END
> <BIOSOLVEIT.HYDE_ESTIMATED_AFFINITY_LOWER_BOUNDARY [nM]>
144527386.028052

> <BIOSOLVEIT.HYDE_ESTIMATED_AFFINITY_UPPER_BOUNDARY [nM]>
14359650315.420355

> <BIOSOLVEIT.HYDE_LIGAND_EFFICIENCY range: ++, +, 0, -, -->
--

> <BIOSOLVEIT.HYDE_LIGAND_LIPOPHILIC_EFFICIENCY range: ++, +, 0, -, -->
--

> <BIOSOLVEIT.INTER_CLASH range: red, yellow, green>
green

> <BIOSOLVEIT.INTRA_CLASH range: red, yellow, green>
green

> <BIOSOLVEIT.LOGP>
2.9308

> <BIOSOLVEIT.MOLECULAR WEIGHT>
349.495

> <BIOSOLVEIT.MOLECULE_CHECKSUM>
MC45MDQ5ODg7MA==

> <BIOSOLVEIT.TORSION_QUALITY range: red, yellow, green, not rotatable>
yellow

> <BIOSOLVEIT.TPSA>
33.54

$$$$
PV-001799431004.****
b8Hydescor01032215413D 1   1.00000     0.00000     0
Hydescorer 1.1.2 b8048283
 61 64  0  0  0  0            999 V2000
   14.1991  -37.7779  -12.0069 N   0  0  0  0  0  0  0  0  0  0  0  0
   13.5973  -36.4494  -11.8154 C   0  0  1  0  0  0  0  0  0  0  0  0
   14.1496  -35.7543  -10.5421 C   0  0  0  0  0  0  0  0  0  0  0  0
   14.8713  -34.5688  -11.0658 N   0  3  1  0  0  0  0  0  0  0  0  0
   14.1746  -34.1975  -12.2941 C   0  0  0  0  0  0  0  0  0  0  0  0
   14.0614  -35.5613  -12.9692 C   0  0  0  0  0  0  0  0  0  0  0  0
   14.7972  -33.4405  -10.1082 C   0  0  0  0  0  0  0  0  0  0  0  0
   15.8793  -32.4278  -10.5423 C   0  0  0  0  0  0  0  0  0  0  0  0
   15.3018  -31.2657  -11.3650 C   0  0  0  0  0  0  0  0  0  0  0  0
   16.3137  -30.1316  -11.1803 C   0  0  0  0  0  0  0  0  0  0  0  0
   17.0864  -30.4532   -9.8963 C   0  0  0  0  0  0  0  0  0  0  0  0
   16.4085  -31.6905   -9.3097 C   0  0  0  0  0  0  0  0  0  0  0  0
   13.5221  -38.9534  -12.1723 C   0  0  0  0  0  0  0  0  0  0  0  0
   12.3135  -38.8398  -12.2203 O   0  0  0  0  0  0  0  0  0  0  0  0
   14.2424  -40.2107  -12.3541 C   0  0  0  0  0  0  0  0  0  0  0  0
   14.6393  -40.9748  -11.2441 C   0  0  0  0  0  0  0  0  0  0  0  0
   15.5415  -42.0171  -11.3998 C   0  0  0  0  0  0  0  0  0  0  0  0
   16.0236  -42.3084  -12.6746 C   0  0  0  0  0  0  0  0  0  0  0  0
   15.5144  -41.6749  -13.8068 C   0  0  0  0  0  0  0  0  0  0  0  0
   14.6216  -40.6227  -13.6409 C   0  0  0  0  0  0  0  0  0  0  0  0
   17.1139  -43.1306  -12.7911 O   0  0  0  0  0  0  0  0  0  0  0  0
   18.2757  -42.4613  -12.4942 C   0  0  0  0  0  0  0  0  0  0  0  0
   18.3350  -41.0861  -12.7163 C   0  0  0  0  0  0  0  0  0  0  0  0
   19.4039  -40.3650  -12.2093 C   0  0  0  0  0  0  0  0  0  0  0  0
   20.4218  -41.0045  -11.4824 C   0  0  0  0  0  0  0  0  0  0  0  0
   20.3987  -42.4089  -11.3746 C   0  0  0  0  0  0  0  0  0  0  0  0
   19.3245  -43.1377  -11.8771 C   0  0  0  0  0  0  0  0  0  0  0  0
   21.4362  -40.1941  -10.8198 C   0  0  0  0  0  0  0  0  0  0  0  0
   22.7463  -40.7747  -10.3433 C   0  0  0  0  0  0  0  0  0  0  0  0
   21.2123  -39.0237  -10.5792 O   0  0  0  0  0  0  0  0  0  0  0  0
   15.1979  -37.8254  -12.0170 H   0  0  0  0  0  0  0  0  0  0  0  0
   12.5995  -36.5085  -11.7874 H   0  0  0  0  0  0  0  0  0  0  0  0
   14.7728  -36.3604  -10.0481 H   0  0  0  0  0  0  0  0  0  0  0  0
   13.4037  -35.4775   -9.9362 H   0  0  0  0  0  0  0  0  0  0  0  0
   14.7104  -33.5564  -12.8436 H   0  0  0  0  0  0  0  0  0  0  0  0
   13.2755  -33.8032  -12.1043 H   0  0  0  0  0  0  0  0  0  0  0  0
   13.3888  -35.5459  -13.7091 H   0  0  0  0  0  0  0  0  0  0  0  0
   14.9445  -35.8637  -13.3280 H   0  0  0  0  0  0  0  0  0  0  0  0
   14.9781  -33.7629   -9.1792 H   0  0  0  0  0  0  0  0  0  0  0  0
   13.8924  -33.0160  -10.1434 H   0  0  0  0  0  0  0  0  0  0  0  0
   16.6210  -32.8832  -11.0348 H   0  0  0  0  0  0  0  0  0  0  0  0
   14.4029  -30.9983  -11.0179 H   0  0  0  0  0  0  0  0  0  0  0  0
   15.2251  -31.5183  -12.3295 H   0  0  0  0  0  0  0  0  0  0  0  0
   15.8400  -29.2556  -11.0896 H   0  0  0  0  0  0  0  0  0  0  0  0
   16.9381  -30.0936  -11.9605 H   0  0  0  0  0  0  0  0  0  0  0  0
   17.0319  -29.6879   -9.2549 H   0  0  0  0  0  0  0  0  0  0  0  0
   18.0453  -30.6459  -10.1047 H   0  0  0  0  0  0  0  0  0  0  0  0
   17.0659  -32.2552   -8.8106 H   0  0  0  0  0  0  0  0  0  0  0  0
   15.6599  -31.4321   -8.6993 H   0  0  0  0  0  0  0  0  0  0  0  0
   14.2701  -40.7667  -10.3384 H   0  0  0  0  0  0  0  0  0  0  0  0
   15.8414  -42.5513  -10.6094 H   0  0  0  0  0  0  0  0  0  0  0  0
   15.7864  -41.9722  -14.7220 H   0  0  0  0  0  0  0  0  0  0  0  0
   14.2475  -40.1568  -14.4428 H   0  0  0  0  0  0  0  0  0  0  0  0
   17.6148  -40.6258  -13.2354 H   0  0  0  0  0  0  0  0  0  0  0  0
   19.4513  -39.3780  -12.3625 H   0  0  0  0  0  0  0  0  0  0  0  0
   21.1594  -42.8856  -10.9340 H   0  0  0  0  0  0  0  0  0  0  0  0
   19.3064  -44.1343  -11.7959 H   0  0  0  0  0  0  0  0  0  0  0  0
   23.2954  -40.0547   -9.9190 H   0  0  0  0  0  0  0  0  0  0  0  0
   22.5674  -41.4957   -9.6738 H   0  0  0  0  0  0  0  0  0  0  0  0
   23.2436  -41.1584  -11.1215 H   0  0  0  0  0  0  0  0  0  0  0  0
   15.8247  -34.7988  -11.2611 H   0  0  0  0  0  0  0  0  0  0  0  0
  1  2  1  0  0  0  0
  1 13  1  0  0  0  0
  1 31  1  0  0  0  0
  2  3  1  0  0  0  0
  2  6  1  0  0  0  0
  2 32  1  0  0  0  0
  3  4  1  0  0  0  0
  3 33  1  0  0  0  0
  3 34  1  0  0  0  0
  4  5  1  0  0  0  0
  4  7  1  0  0  0  0
  4 61  1  0  0  0  0
  5  6  1  0  0  0  0
  5 35  1  0  0  0  0
  5 36  1  0  0  0  0
  6 37  1  0  0  0  0
  6 38  1  0  0  0  0
  7  8  1  0  0  0  0
  7 39  1  0  0  0  0
  7 40  1  0  0  0  0
  8  9  1  0  0  0  0
  8 12  1  0  0  0  0
  8 41  1  0  0  0  0
  9 10  1  0  0  0  0
  9 42  1  0  0  0  0
  9 43  1  0  0  0  0
 10 11  1  0  0  0  0
 10 44  1  0  0  0  0
 10 45  1  0  0  0  0
 11 12  1  0  0  0  0
 11 46  1  0  0  0  0
 11 47  1  0  0  0  0
 12 48  1  0  0  0  0
 12 49  1  0  0  0  0
 13 14  2  0  0  0  0
 13 15  1  0  0  0  0
 15 16  2  0  0  0  0
 15 20  1  0  0  0  0
 16 17  1  0  0  0  0
 16 50  1  0  0  0  0
 17 18  2  0  0  0  0
 17 51  1  0  0  0  0
 18 19  1  0  0  0  0
 18 21  1  0  0  0  0
 19 20  2  0  0  0  0
 19 52  1  0  0  0  0
 20 53  1  0  0  0  0
 21 22  1  0  0  0  0
 22 23  2  0  0  0  0
 22 27  1  0  0  0  0
 23 24  1  0  0  0  0
 23 54  1  0  0  0  0
 24 25  2  0  0  0  0
 24 55  1  0  0  0  0
 25 26  1  0  0  0  0
 25 28  1  0  0  0  0
 26 27  2  0  0  0  0
 26 56  1  0  0  0  0
 27 57  1  0  0  0  0
 28 29  1  0  0  0  0
 28 30  2  0  0  0  0
 29 58  1  0  0  0  0
 29 59  1  0  0  0  0
 29 60  1  0  0  0  0
M  CHG  1   4   1
M  END
> <BIOSOLVEIT.HYDE_ESTIMATED_AFFINITY_LOWER_BOUNDARY [nM]>
24658.184741

> <BIOSOLVEIT.HYDE_ESTIMATED_AFFINITY_UPPER_BOUNDARY [nM]>
2449936.444791

> <BIOSOLVEIT.HYDE_LIGAND_EFFICIENCY range: ++, +, 0, -, -->
--

> <BIOSOLVEIT.HYDE_LIGAND_LIPOPHILIC_EFFICIENCY range: ++, +, 0, -, -->
--

> <BIOSOLVEIT.INTER_CLASH range: red, yellow, green>
green

> <BIOSOLVEIT.INTRA_CLASH range: red, yellow, green>
green

> <BIOSOLVEIT.LOGP>
3.2587

> <BIOSOLVEIT.MOLECULAR WEIGHT>
407.531

> <BIOSOLVEIT.MOLECULE_CHECKSUM>
LTIwLjYwMjc7MC42ODY3NTg=

> <BIOSOLVEIT.TORSION_QUALITY range: red, yellow, green, not rotatable>
yellow

> <BIOSOLVEIT.TPSA>
59.84

$$$$
PV-001799431004.****
b8Hydescor01032215413D 1   1.00000     0.00000     0
Hydescorer 1.1.2 b8048283
 61 64  0  0  0  0            999 V2000
   15.8881  -40.9017  -11.9056 N   0  0  0  0  0  0  0  0  0  0  0  0
   14.6045  -40.3204  -11.4835 C   0  0  1  0  0  0  0  0  0  0  0  0
   14.6656  -38.7695  -11.4557 C   0  0  0  0  0  0  0  0  0  0  0  0
   13.6992  -38.3544  -12.5018 N   0  3  1  0  0  0  0  0  0  0  0  0
   12.6847  -39.4040  -12.5363 C   0  0  0  0  0  0  0  0  0  0  0  0
   13.5731  -40.6444  -12.5635 C   0  0  0  0  0  0  0  0  0  0  0  0
   13.0534  -37.0697  -12.1435 C   0  0  0  0  0  0  0  0  0  0  0  0
   14.1444  -35.9837  -12.2663 C   0  0  0  0  0  0  0  0  0  0  0  0
   13.7758  -34.8912  -13.2819 C   0  0  0  0  0  0  0  0  0  0  0  0
   14.5974  -33.6753  -12.8449 C   0  0  0  0  0  0  0  0  0  0  0  0
   14.9476  -33.9038  -11.3704 C   0  0  0  0  0  0  0  0  0  0  0  0
   14.2070  -35.1776  -10.9664 C   0  0  0  0  0  0  0  0  0  0  0  0
   16.5953  -40.5668  -13.0259 C   0  0  0  0  0  0  0  0  0  0  0  0
   16.1163  -39.6582  -13.6747 O   0  0  0  0  0  0  0  0  0  0  0  0
   17.8635  -41.2228  -13.3323 C   0  0  0  0  0  0  0  0  0  0  0  0
   18.8513  -41.3675  -12.3440 C   0  0  0  0  0  0  0  0  0  0  0  0
   20.1397  -41.7449  -12.6939 C   0  0  0  0  0  0  0  0  0  0  0  0
   20.4281  -42.0028  -14.0327 C   0  0  0  0  0  0  0  0  0  0  0  0
   19.4252  -42.0298  -15.0002 C   0  0  0  0  0  0  0  0  0  0  0  0
   18.1404  -41.6372  -14.6442 C   0  0  0  0  0  0  0  0  0  0  0  0
   21.7411  -42.0908  -14.4154 O   0  0  0  0  0  0  0  0  0  0  0  0
   22.4172  -40.9267  -14.1445 C   0  0  0  0  0  0  0  0  0  0  0  0
   22.0374  -39.7590  -14.8051 C   0  0  0  0  0  0  0  0  0  0  0  0
   22.5463  -38.5438  -14.3765 C   0  0  0  0  0  0  0  0  0  0  0  0
   23.4378  -38.4803  -13.2927 C   0  0  0  0  0  0  0  0  0  0  0  0
   23.8967  -39.6830  -12.7204 C   0  0  0  0  0  0  0  0  0  0  0  0
   23.3845  -40.9063  -13.1433 C   0  0  0  0  0  0  0  0  0  0  0  0
   23.8168  -37.1768  -12.7619 C   0  0  0  0  0  0  0  0  0  0  0  0
   24.7131  -36.2275  -13.5210 C   0  0  0  0  0  0  0  0  0  0  0  0
   23.4593  -36.8513  -11.6465 O   0  0  0  0  0  0  0  0  0  0  0  0
   16.2803  -41.6088  -11.3171 H   0  0  0  0  0  0  0  0  0  0  0  0
   14.3207  -40.6840  -10.5962 H   0  0  0  0  0  0  0  0  0  0  0  0
   15.5863  -38.4460  -11.6736 H   0  0  0  0  0  0  0  0  0  0  0  0
   14.3924  -38.4189  -10.5599 H   0  0  0  0  0  0  0  0  0  0  0  0
   12.1142  -39.3399  -13.3551 H   0  0  0  0  0  0  0  0  0  0  0  0
   12.1036  -39.3833  -11.7227 H   0  0  0  0  0  0  0  0  0  0  0  0
   13.0542  -41.4682  -12.3349 H   0  0  0  0  0  0  0  0  0  0  0  0
   14.0070  -40.7611  -13.4568 H   0  0  0  0  0  0  0  0  0  0  0  0
   12.7062  -37.1067  -11.2065 H   0  0  0  0  0  0  0  0  0  0  0  0
   12.2994  -36.8750  -12.7708 H   0  0  0  0  0  0  0  0  0  0  0  0
   15.0329  -36.3892  -12.4811 H   0  0  0  0  0  0  0  0  0  0  0  0
   12.7970  -34.6892  -13.2452 H   0  0  0  0  0  0  0  0  0  0  0  0
   14.0237  -35.1715  -14.2093 H   0  0  0  0  0  0  0  0  0  0  0  0
   14.0598  -32.8384  -12.9479 H   0  0  0  0  0  0  0  0  0  0  0  0
   15.4313  -33.6054  -13.3925 H   0  0  0  0  0  0  0  0  0  0  0  0
   14.6415  -33.1307  -10.8148 H   0  0  0  0  0  0  0  0  0  0  0  0
   15.9342  -34.0236  -11.2602 H   0  0  0  0  0  0  0  0  0  0  0  0
   14.7114  -35.6758  -10.2611 H   0  0  0  0  0  0  0  0  0  0  0  0
   13.2883  -34.9662  -10.6326 H   0  0  0  0  0  0  0  0  0  0  0  0
   18.6250  -41.1978  -11.3849 H   0  0  0  0  0  0  0  0  0  0  0  0
   20.8507  -41.8305  -11.9960 H   0  0  0  0  0  0  0  0  0  0  0  0
   19.6264  -42.3264  -15.9338 H   0  0  0  0  0  0  0  0  0  0  0  0
   17.4094  -41.6502  -15.3265 H   0  0  0  0  0  0  0  0  0  0  0  0
   21.4053  -39.7983  -15.5790 H   0  0  0  0  0  0  0  0  0  0  0  0
   22.2760  -37.7022  -14.8440 H   0  0  0  0  0  0  0  0  0  0  0  0
   24.5953  -39.6577  -12.0053 H   0  0  0  0  0  0  0  0  0  0  0  0
   23.7070  -41.7595  -12.7333 H   0  0  0  0  0  0  0  0  0  0  0  0
   24.8478  -35.3948  -12.9838 H   0  0  0  0  0  0  0  0  0  0  0  0
   25.5973  -36.6642  -13.6864 H   0  0  0  0  0  0  0  0  0  0  0  0
   24.2875  -35.9946  -14.3955 H   0  0  0  0  0  0  0  0  0  0  0  0
   14.1552  -38.2804  -13.3886 H   0  0  0  0  0  0  0  0  0  0  0  0
  1  2  1  0  0  0  0
  1 13  1  0  0  0  0
  1 31  1  0  0  0  0
  2  3  1  0  0  0  0
  2  6  1  0  0  0  0
  2 32  1  0  0  0  0
  3  4  1  0  0  0  0
  3 33  1  0  0  0  0
  3 34  1  0  0  0  0
  4  5  1  0  0  0  0
  4  7  1  0  0  0  0
  4 61  1  0  0  0  0
  5  6  1  0  0  0  0
  5 35  1  0  0  0  0
  5 36  1  0  0  0  0
  6 37  1  0  0  0  0
  6 38  1  0  0  0  0
  7  8  1  0  0  0  0
  7 39  1  0  0  0  0
  7 40  1  0  0  0  0
  8  9  1  0  0  0  0
  8 12  1  0  0  0  0
  8 41  1  0  0  0  0
  9 10  1  0  0  0  0
  9 42  1  0  0  0  0
  9 43  1  0  0  0  0
 10 11  1  0  0  0  0
 10 44  1  0  0  0  0
 10 45  1  0  0  0  0
 11 12  1  0  0  0  0
 11 46  1  0  0  0  0
 11 47  1  0  0  0  0
 12 48  1  0  0  0  0
 12 49  1  0  0  0  0
 13 14  2  0  0  0  0
 13 15  1  0  0  0  0
 15 16  2  0  0  0  0
 15 20  1  0  0  0  0
 16 17  1  0  0  0  0
 16 50  1  0  0  0  0
 17 18  2  0  0  0  0
 17 51  1  0  0  0  0
 18 19  1  0  0  0  0
 18 21  1  0  0  0  0
 19 20  2  0  0  0  0
 19 52  1  0  0  0  0
 20 53  1  0  0  0  0
 21 22  1  0  0  0  0
 22 23  2  0  0  0  0
 22 27  1  0  0  0  0
 23 24  1  0  0  0  0
 23 54  1  0  0  0  0
 24 25  2  0  0  0  0
 24 55  1  0  0  0  0
 25 26  1  0  0  0  0
 25 28  1  0  0  0  0
 26 27  2  0  0  0  0
 26 56  1  0  0  0  0
 27 57  1  0  0  0  0
 28 29  1  0  0  0  0
 28 30  2  0  0  0  0
 29 58  1  0  0  0  0
 29 59  1  0  0  0  0
 29 60  1  0  0  0  0
M  CHG  1   4   1
M  END
> <BIOSOLVEIT.HYDE_ESTIMATED_AFFINITY_LOWER_BOUNDARY [nM]>
88531815.433844

> <BIOSOLVEIT.HYDE_ESTIMATED_AFFINITY_UPPER_BOUNDARY [nM]>
8796159304.870974

> <BIOSOLVEIT.HYDE_LIGAND_EFFICIENCY range: ++, +, 0, -, -->
--

> <BIOSOLVEIT.HYDE_LIGAND_LIPOPHILIC_EFFICIENCY range: ++, +, 0, -, -->
--

> <BIOSOLVEIT.INTER_CLASH range: red, yellow, green>
green

> <BIOSOLVEIT.INTRA_CLASH range: red, yellow, green>
yellow

> <BIOSOLVEIT.LOGP>
3.2587

> <BIOSOLVEIT.MOLECULAR WEIGHT>
407.531

> <BIOSOLVEIT.MOLECULE_CHECKSUM>
LTAuMzA5OTY2OzAuMDEwMzMyMg==

> <BIOSOLVEIT.TORSION_QUALITY range: red, yellow, green, not rotatable>
red

> <BIOSOLVEIT.TPSA>
59.84

$$$$
PV-001799431004.****
b8Hydescor01032215413D 1   1.00000     0.00000     0
Hydescorer 1.1.2 b8048283
 61 64  0  0  0  0            999 V2000
   25.0332  -36.4835   -9.0321 N   0  0  0  0  0  0  0  0  0  0  0  0
   25.9850  -35.7142   -8.2157 C   0  0  1  0  0  0  0  0  0  0  0  0
   25.7404  -35.9358   -6.6990 C   0  0  0  0  0  0  0  0  0  0  0  0
   26.9768  -36.6091   -6.2316 N   0  3  1  0  0  0  0  0  0  0  0  0
   28.0417  -36.1212   -7.1031 C   0  0  0  0  0  0  0  0  0  0  0  0
   27.3788  -36.2880   -8.4675 C   0  0  0  0  0  0  0  0  0  0  0  0
   27.2863  -36.2317   -4.8324 C   0  0  0  0  0  0  0  0  0  0  0  0
   26.1792  -35.2502   -4.3901 C   0  0  0  0  0  0  0  0  0  0  0  0
   25.6302  -35.5736   -2.9919 C   0  0  0  0  0  0  0  0  0  0  0  0
   25.0519  -34.2455   -2.4957 C   0  0  0  0  0  0  0  0  0  0  0  0
   25.7414  -33.1473   -3.3129 C   0  0  0  0  0  0  0  0  0  0  0  0
   26.7902  -33.8655   -4.1608 C   0  0  0  0  0  0  0  0  0  0  0  0
   24.5759  -36.1418  -10.2737 C   0  0  0  0  0  0  0  0  0  0  0  0
   25.0714  -35.1336  -10.7365 O   0  0  0  0  0  0  0  0  0  0  0  0
   23.6273  -36.9971  -10.9815 C   0  0  0  0  0  0  0  0  0  0  0  0
   23.6129  -37.0406  -12.3856 C   0  0  0  0  0  0  0  0  0  0  0  0
   22.5549  -37.6379  -13.0553 C   0  0  0  0  0  0  0  0  0  0  0  0
   21.5256  -38.2149  -12.3139 C   0  0  0  0  0  0  0  0  0  0  0  0
   21.6052  -38.3314  -10.9274 C   0  0  0  0  0  0  0  0  0  0  0  0
   22.6611  -37.7182  -10.2633 C   0  0  0  0  0  0  0  0  0  0  0  0
   20.3594  -38.5424  -12.9552 O   0  0  0  0  0  0  0  0  0  0  0  0
   19.3952  -37.5857  -12.7530 C   0  0  0  0  0  0  0  0  0  0  0  0
   18.6102  -37.6547  -11.6028 C   0  0  0  0  0  0  0  0  0  0  0  0
   17.8021  -36.5795  -11.2702 C   0  0  0  0  0  0  0  0  0  0  0  0
   17.7652  -35.4314  -12.0789 C   0  0  0  0  0  0  0  0  0  0  0  0
   18.4756  -35.4353  -13.2955 C   0  0  0  0  0  0  0  0  0  0  0  0
   19.2935  -36.5105  -13.6317 C   0  0  0  0  0  0  0  0  0  0  0  0
   17.0397  -34.2571  -11.6104 C   0  0  0  0  0  0  0  0  0  0  0  0
   16.2968  -34.2407  -10.2957 C   0  0  0  0  0  0  0  0  0  0  0  0
   16.9681  -33.2698  -12.3161 O   0  0  0  0  0  0  0  0  0  0  0  0
   24.6884  -37.3372   -8.6417 H   0  0  0  0  0  0  0  0  0  0  0  0
   25.9506  -34.7417   -8.4461 H   0  0  0  0  0  0  0  0  0  0  0  0
   24.9406  -36.5170   -6.5490 H   0  0  0  0  0  0  0  0  0  0  0  0
   25.6112  -35.0630   -6.2284 H   0  0  0  0  0  0  0  0  0  0  0  0
   28.8686  -36.6777   -7.0234 H   0  0  0  0  0  0  0  0  0  0  0  0
   28.2642  -35.1646   -6.9148 H   0  0  0  0  0  0  0  0  0  0  0  0
   27.8631  -35.7699   -9.1725 H   0  0  0  0  0  0  0  0  0  0  0  0
   27.3327  -37.2507   -8.7337 H   0  0  0  0  0  0  0  0  0  0  0  0
   28.1813  -35.7882   -4.7838 H   0  0  0  0  0  0  0  0  0  0  0  0
   27.2838  -37.0425   -4.2470 H   0  0  0  0  0  0  0  0  0  0  0  0
   25.4426  -35.2109   -5.0653 H   0  0  0  0  0  0  0  0  0  0  0  0
   26.3623  -35.8887   -2.3880 H   0  0  0  0  0  0  0  0  0  0  0  0
   24.9172  -36.2728   -3.0443 H   0  0  0  0  0  0  0  0  0  0  0  0
   25.2447  -34.1257   -1.5217 H   0  0  0  0  0  0  0  0  0  0  0  0
   24.0635  -34.2202   -2.6453 H   0  0  0  0  0  0  0  0  0  0  0  0
   26.1778  -32.4825   -2.7066 H   0  0  0  0  0  0  0  0  0  0  0  0
   25.0791  -32.6798   -3.8985 H   0  0  0  0  0  0  0  0  0  0  0  0
   26.9342  -33.3904   -5.0289 H   0  0  0  0  0  0  0  0  0  0  0  0
   27.6591  -33.9351   -3.6708 H   0  0  0  0  0  0  0  0  0  0  0  0
   24.3680  -36.6395  -12.9042 H   0  0  0  0  0  0  0  0  0  0  0  0
   22.5313  -37.6542  -14.0549 H   0  0  0  0  0  0  0  0  0  0  0  0
   20.9150  -38.8468  -10.4194 H   0  0  0  0  0  0  0  0  0  0  0  0
   22.7327  -37.7913   -9.2685 H   0  0  0  0  0  0  0  0  0  0  0  0
   18.6302  -38.4704  -11.0248 H   0  0  0  0  0  0  0  0  0  0  0  0
   17.2387  -36.6212  -10.4452 H   0  0  0  0  0  0  0  0  0  0  0  0
   18.3919  -34.6602  -13.9219 H   0  0  0  0  0  0  0  0  0  0  0  0
   19.8014  -36.5105  -14.4932 H   0  0  0  0  0  0  0  0  0  0  0  0
   15.8706  -33.3456  -10.1649 H   0  0  0  0  0  0  0  0  0  0  0  0
   15.5904  -34.9485  -10.3032 H   0  0  0  0  0  0  0  0  0  0  0  0
   16.9376  -34.4172   -9.5486 H   0  0  0  0  0  0  0  0  0  0  0  0
   26.8860  -37.6016   -6.3135 H   0  0  0  0  0  0  0  0  0  0  0  0
  1  2  1  0  0  0  0
  1 13  1  0  0  0  0
  1 31  1  0  0  0  0
  2  3  1  0  0  0  0
  2  6  1  0  0  0  0
  2 32  1  0  0  0  0
  3  4  1  0  0  0  0
  3 33  1  0  0  0  0
  3 34  1  0  0  0  0
  4  5  1  0  0  0  0
  4  7  1  0  0  0  0
  4 61  1  0  0  0  0
  5  6  1  0  0  0  0
  5 35  1  0  0  0  0
  5 36  1  0  0  0  0
  6 37  1  0  0  0  0
  6 38  1  0  0  0  0
  7  8  1  0  0  0  0
  7 39  1  0  0  0  0
  7 40  1  0  0  0  0
  8  9  1  0  0  0  0
  8 12  1  0  0  0  0
  8 41  1  0  0  0  0
  9 10  1  0  0  0  0
  9 42  1  0  0  0  0
  9 43  1  0  0  0  0
 10 11  1  0  0  0  0
 10 44  1  0  0  0  0
 10 45  1  0  0  0  0
 11 12  1  0  0  0  0
 11 46  1  0  0  0  0
 11 47  1  0  0  0  0
 12 48  1  0  0  0  0
 12 49  1  0  0  0  0
 13 14  2  0  0  0  0
 13 15  1  0  0  0  0
 15 16  2  0  0  0  0
 15 20  1  0  0  0  0
 16 17  1  0  0  0  0
 16 50  1  0  0  0  0
 17 18  2  0  0  0  0
 17 51  1  0  0  0  0
 18 19  1  0  0  0  0
 18 21  1  0  0  0  0
 19 20  2  0  0  0  0
 19 52  1  0  0  0  0
 20 53  1  0  0  0  0
 21 22  1  0  0  0  0
 22 23  2  0  0  0  0
 22 27  1  0  0  0  0
 23 24  1  0  0  0  0
 23 54  1  0  0  0  0
 24 25  2  0  0  0  0
 24 55  1  0  0  0  0
 25 26  1  0  0  0  0
 25 28  1  0  0  0  0
 26 27  2  0  0  0  0
 26 56  1  0  0  0  0
 27 57  1  0  0  0  0
 28 29  1  0  0  0  0
 28 30  2  0  0  0  0
 29 58  1  0  0  0  0
 29 59  1  0  0  0  0
 29 60  1  0  0  0  0
M  CHG  1   4   1
M  END
> <BIOSOLVEIT.HYDE_ESTIMATED_AFFINITY_LOWER_BOUNDARY [nM]>
138659548.212469

> <BIOSOLVEIT.HYDE_ESTIMATED_AFFINITY_UPPER_BOUNDARY [nM]>
13776645935.039398

> <BIOSOLVEIT.HYDE_LIGAND_EFFICIENCY range: ++, +, 0, -, -->
--

> <BIOSOLVEIT.HYDE_LIGAND_LIPOPHILIC_EFFICIENCY range: ++, +, 0, -, -->
--

> <BIOSOLVEIT.INTER_CLASH range: red, yellow, green>
green

> <BIOSOLVEIT.INTRA_CLASH range: red, yellow, green>
green

> <BIOSOLVEIT.LOGP>
3.2587

> <BIOSOLVEIT.MOLECULAR WEIGHT>
407.531

> <BIOSOLVEIT.MOLECULE_CHECKSUM>
MC44MDIyNDI7MA==

> <BIOSOLVEIT.TORSION_QUALITY range: red, yellow, green, not rotatable>
yellow

> <BIOSOLVEIT.TPSA>
59.84

$$$$
PV-001799431004.****
b8Hydescor01032215413D 1   1.00000     0.00000     0
Hydescorer 1.1.2 b8048283
 61 64  0  0  0  0            999 V2000
   21.0163  -38.9105  -11.1791 N   0  0  0  0  0  0  0  0  0  0  0  0
   22.2472  -39.7152  -11.1444 C   0  0  1  0  0  0  0  0  0  0  0  0
   23.3697  -39.0014  -10.3443 C   0  0  0  0  0  0  0  0  0  0  0  0
   23.6005  -39.8909   -9.1799 N   0  3  1  0  0  0  0  0  0  0  0  0
   23.2837  -41.2374   -9.6470 C   0  0  0  0  0  0  0  0  0  0  0  0
   21.9493  -40.9809  -10.3416 C   0  0  0  0  0  0  0  0  0  0  0  0
   25.0198  -39.8477   -8.7561 C   0  0  0  0  0  0  0  0  0  0  0  0
   25.0329  -39.2416   -7.3358 C   0  0  0  0  0  0  0  0  0  0  0  0
   26.4020  -39.3756   -6.6513 C   0  0  0  0  0  0  0  0  0  0  0  0
   26.4136  -38.2572   -5.6056 C   0  0  0  0  0  0  0  0  0  0  0  0
   25.3748  -37.2294   -6.0677 C   0  0  0  0  0  0  0  0  0  0  0  0
   24.8918  -37.7204   -7.4317 C   0  0  0  0  0  0  0  0  0  0  0  0
   20.0113  -39.0137  -12.0994 C   0  0  0  0  0  0  0  0  0  0  0  0
   20.1576  -39.9053  -12.9116 O   0  0  0  0  0  0  0  0  0  0  0  0
   18.8360  -38.1507  -12.0214 C   0  0  0  0  0  0  0  0  0  0  0  0
   18.9595  -36.8073  -11.6296 C   0  0  0  0  0  0  0  0  0  0  0  0
   17.8318  -36.0684  -11.3021 C   0  0  0  0  0  0  0  0  0  0  0  0
   16.5788  -36.6714  -11.3942 C   0  0  0  0  0  0  0  0  0  0  0  0
   16.4229  -37.9440  -11.9410 C   0  0  0  0  0  0  0  0  0  0  0  0
   17.5581  -38.6824  -12.2535 C   0  0  0  0  0  0  0  0  0  0  0  0
   15.5078  -36.0511  -10.8057 O   0  0  0  0  0  0  0  0  0  0  0  0
   15.6127  -34.6850  -10.8964 C   0  0  0  0  0  0  0  0  0  0  0  0
   15.9859  -33.9623   -9.7640 C   0  0  0  0  0  0  0  0  0  0  0  0
   16.3209  -32.6244   -9.8957 C   0  0  0  0  0  0  0  0  0  0  0  0
   16.2838  -31.9948  -11.1511 C   0  0  0  0  0  0  0  0  0  0  0  0
   15.7901  -32.7146  -12.2568 C   0  0  0  0  0  0  0  0  0  0  0  0
   15.4575  -34.0605  -12.1312 C   0  0  0  0  0  0  0  0  0  0  0  0
   16.8055  -30.6398  -11.2802 C   0  0  0  0  0  0  0  0  0  0  0  0
   16.1513  -29.4573  -10.6063 C   0  0  0  0  0  0  0  0  0  0  0  0
   17.7618  -30.4265  -11.9998 O   0  0  0  0  0  0  0  0  0  0  0  0
   20.9043  -38.2231  -10.4615 H   0  0  0  0  0  0  0  0  0  0  0  0
   22.5541  -39.9411  -12.0689 H   0  0  0  0  0  0  0  0  0  0  0  0
   23.0719  -38.0947  -10.0457 H   0  0  0  0  0  0  0  0  0  0  0  0
   24.1995  -38.9149  -10.8957 H   0  0  0  0  0  0  0  0  0  0  0  0
   23.1871  -41.8794   -8.8864 H   0  0  0  0  0  0  0  0  0  0  0  0
   23.9733  -41.5788  -10.2858 H   0  0  0  0  0  0  0  0  0  0  0  0
   21.6997  -41.7412  -10.9412 H   0  0  0  0  0  0  0  0  0  0  0  0
   21.2178  -40.8261   -9.6775 H   0  0  0  0  0  0  0  0  0  0  0  0
   25.5501  -39.2751   -9.3813 H   0  0  0  0  0  0  0  0  0  0  0  0
   25.4046  -40.7706   -8.7418 H   0  0  0  0  0  0  0  0  0  0  0  0
   24.3081  -39.6350   -6.7702 H   0  0  0  0  0  0  0  0  0  0  0  0
   27.1421  -39.2503   -7.3120 H   0  0  0  0  0  0  0  0  0  0  0  0
   26.4934  -40.2703   -6.2140 H   0  0  0  0  0  0  0  0  0  0  0  0
   27.3196  -37.8368   -5.5576 H   0  0  0  0  0  0  0  0  0  0  0  0
   26.1664  -38.6200   -4.7071 H   0  0  0  0  0  0  0  0  0  0  0  0
   25.7916  -36.3241   -6.1498 H   0  0  0  0  0  0  0  0  0  0  0  0
   24.6127  -37.1881   -5.4214 H   0  0  0  0  0  0  0  0  0  0  0  0
   23.9394  -37.4592   -7.5886 H   0  0  0  0  0  0  0  0  0  0  0  0
   25.4632  -37.3541   -8.1661 H   0  0  0  0  0  0  0  0  0  0  0  0
   19.8635  -36.3820  -11.5866 H   0  0  0  0  0  0  0  0  0  0  0  0
   17.9168  -35.1175  -11.0045 H   0  0  0  0  0  0  0  0  0  0  0  0
   15.5106  -38.3190  -12.1056 H   0  0  0  0  0  0  0  0  0  0  0  0
   17.4638  -39.5974  -12.6458 H   0  0  0  0  0  0  0  0  0  0  0  0
   16.0114  -34.4044   -8.8674 H   0  0  0  0  0  0  0  0  0  0  0  0
   16.5923  -32.1010   -9.0880 H   0  0  0  0  0  0  0  0  0  0  0  0
   15.6778  -32.2555  -13.1381 H   0  0  0  0  0  0  0  0  0  0  0  0
   15.1117  -34.5723  -12.9176 H   0  0  0  0  0  0  0  0  0  0  0  0
   16.6633  -28.6257  -10.8215 H   0  0  0  0  0  0  0  0  0  0  0  0
   15.2114  -29.3644  -10.9349 H   0  0  0  0  0  0  0  0  0  0  0  0
   16.1460  -29.5986   -9.6164 H   0  0  0  0  0  0  0  0  0  0  0  0
   23.0017  -39.6349   -8.4210 H   0  0  0  0  0  0  0  0  0  0  0  0
  1  2  1  0  0  0  0
  1 13  1  0  0  0  0
  1 31  1  0  0  0  0
  2  3  1  0  0  0  0
  2  6  1  0  0  0  0
  2 32  1  0  0  0  0
  3  4  1  0  0  0  0
  3 33  1  0  0  0  0
  3 34  1  0  0  0  0
  4  5  1  0  0  0  0
  4  7  1  0  0  0  0
  4 61  1  0  0  0  0
  5  6  1  0  0  0  0
  5 35  1  0  0  0  0
  5 36  1  0  0  0  0
  6 37  1  0  0  0  0
  6 38  1  0  0  0  0
  7  8  1  0  0  0  0
  7 39  1  0  0  0  0
  7 40  1  0  0  0  0
  8  9  1  0  0  0  0
  8 12  1  0  0  0  0
  8 41  1  0  0  0  0
  9 10  1  0  0  0  0
  9 42  1  0  0  0  0
  9 43  1  0  0  0  0
 10 11  1  0  0  0  0
 10 44  1  0  0  0  0
 10 45  1  0  0  0  0
 11 12  1  0  0  0  0
 11 46  1  0  0  0  0
 11 47  1  0  0  0  0
 12 48  1  0  0  0  0
 12 49  1  0  0  0  0
 13 14  2  0  0  0  0
 13 15  1  0  0  0  0
 15 16  2  0  0  0  0
 15 20  1  0  0  0  0
 16 17  1  0  0  0  0
 16 50  1  0  0  0  0
 17 18  2  0  0  0  0
 17 51  1  0  0  0  0
 18 19  1  0  0  0  0
 18 21  1  0  0  0  0
 19 20  2  0  0  0  0
 19 52  1  0  0  0  0
 20 53  1  0  0  0  0
 21 22  1  0  0  0  0
 22 23  2  0  0  0  0
 22 27  1  0  0  0  0
 23 24  1  0  0  0  0
 23 54  1  0  0  0  0
 24 25  2  0  0  0  0
 24 55  1  0  0  0  0
 25 26  1  0  0  0  0
 25 28  1  0  0  0  0
 26 27  2  0  0  0  0
 26 56  1  0  0  0  0
 27 57  1  0  0  0  0
 28 29  1  0  0  0  0
 28 30  2  0  0  0  0
 29 58  1  0  0  0  0
 29 59  1  0  0  0  0
 29 60  1  0  0  0  0
M  CHG  1   4   1
M  END
> <BIOSOLVEIT.HYDE_ESTIMATED_AFFINITY_LOWER_BOUNDARY [nM]>
27108382.968128

> <BIOSOLVEIT.HYDE_ESTIMATED_AFFINITY_UPPER_BOUNDARY [nM]>
2693378125.328186

> <BIOSOLVEIT.HYDE_LIGAND_EFFICIENCY range: ++, +, 0, -, -->
--

> <BIOSOLVEIT.HYDE_LIGAND_LIPOPHILIC_EFFICIENCY range: ++, +, 0, -, -->
--

> <BIOSOLVEIT.INTER_CLASH range: red, yellow, green>
green

> <BIOSOLVEIT.INTRA_CLASH range: red, yellow, green>
green

> <BIOSOLVEIT.LOGP>
3.2587

> <BIOSOLVEIT.MOLECULAR WEIGHT>
407.531

> <BIOSOLVEIT.MOLECULE_CHECKSUM>
LTMuMjQzODY7MC4xMDgxMjk=

> <BIOSOLVEIT.TORSION_QUALITY range: red, yellow, green, not rotatable>
yellow

> <BIOSOLVEIT.TPSA>
59.84

$$$$
PV-001799431004.****
b8Hydescor01032215413D 1   1.00000     0.00000     0
Hydescorer 1.1.2 b8048283
 61 64  0  0  0  0            999 V2000
   16.9005  -36.7825  -11.6897 N   0  0  0  0  0  0  0  0  0  0  0  0
   16.5248  -35.8038  -10.6578 C   0  0  1  0  0  0  0  0  0  0  0  0
   16.2541  -34.4050  -11.2740 C   0  0  0  0  0  0  0  0  0  0  0  0
   14.8128  -34.1713  -11.0123 N   0  3  1  0  0  0  0  0  0  0  0  0
   14.5168  -34.8938   -9.7784 C   0  0  0  0  0  0  0  0  0  0  0  0
   15.1777  -36.2358  -10.0800 C   0  0  0  0  0  0  0  0  0  0  0  0
   14.5410  -32.7294  -10.8051 C   0  0  0  0  0  0  0  0  0  0  0  0
   15.9139  -32.0220  -10.8072 C   0  0  0  0  0  0  0  0  0  0  0  0
   15.9485  -30.8073  -11.7475 C   0  0  0  0  0  0  0  0  0  0  0  0
   17.0730  -29.9298  -11.1909 C   0  0  0  0  0  0  0  0  0  0  0  0
   17.2559  -30.3469   -9.7274 C   0  0  0  0  0  0  0  0  0  0  0  0
   16.1445  -31.3573   -9.4478 C   0  0  0  0  0  0  0  0  0  0  0  0
   17.5415  -37.9708  -11.4785 C   0  0  0  0  0  0  0  0  0  0  0  0
   17.7484  -38.2345  -10.3108 O   0  0  0  0  0  0  0  0  0  0  0  0
   17.8586  -38.8569  -12.5952 C   0  0  0  0  0  0  0  0  0  0  0  0
   16.8535  -39.2792  -13.4811 C   0  0  0  0  0  0  0  0  0  0  0  0
   17.0964  -40.3161  -14.3702 C   0  0  0  0  0  0  0  0  0  0  0  0
   18.3570  -40.9100  -14.3875 C   0  0  0  0  0  0  0  0  0  0  0  0
   19.4137  -40.3946  -13.6388 C   0  0  0  0  0  0  0  0  0  0  0  0
   19.1586  -39.3652  -12.7406 C   0  0  0  0  0  0  0  0  0  0  0  0
   18.5112  -42.1022  -15.0456 O   0  0  0  0  0  0  0  0  0  0  0  0
   17.5872  -43.0263  -14.6237 C   0  0  0  0  0  0  0  0  0  0  0  0
   17.6187  -43.4509  -13.2960 C   0  0  0  0  0  0  0  0  0  0  0  0
   16.5614  -44.1959  -12.7993 C   0  0  0  0  0  0  0  0  0  0  0  0
   15.4689  -44.5273  -13.6179 C   0  0  0  0  0  0  0  0  0  0  0  0
   15.5176  -44.1884  -14.9844 C   0  0  0  0  0  0  0  0  0  0  0  0
   16.5746  -43.4350  -15.4874 C   0  0  0  0  0  0  0  0  0  0  0  0
   14.3007  -45.1609  -13.0190 C   0  0  0  0  0  0  0  0  0  0  0  0
   14.3258  -45.7440  -11.6263 C   0  0  0  0  0  0  0  0  0  0  0  0
   13.2820  -45.2880  -13.6701 O   0  0  0  0  0  0  0  0  0  0  0  0
   16.6647  -36.5570  -12.6349 H   0  0  0  0  0  0  0  0  0  0  0  0
   17.2215  -35.7517   -9.9425 H   0  0  0  0  0  0  0  0  0  0  0  0
   16.4414  -34.4069  -12.2563 H   0  0  0  0  0  0  0  0  0  0  0  0
   16.8141  -33.7061  -10.8292 H   0  0  0  0  0  0  0  0  0  0  0  0
   13.5320  -34.9909   -9.6341 H   0  0  0  0  0  0  0  0  0  0  0  0
   14.9282  -34.4498   -8.9823 H   0  0  0  0  0  0  0  0  0  0  0  0
   15.2962  -36.7776   -9.2479 H   0  0  0  0  0  0  0  0  0  0  0  0
   14.6478  -36.7600  -10.7465 H   0  0  0  0  0  0  0  0  0  0  0  0
   14.0798  -32.5868   -9.9294 H   0  0  0  0  0  0  0  0  0  0  0  0
   13.9686  -32.3756  -11.5447 H   0  0  0  0  0  0  0  0  0  0  0  0
   16.6492  -32.6647  -11.0226 H   0  0  0  0  0  0  0  0  0  0  0  0
   15.0758  -30.3194  -11.7282 H   0  0  0  0  0  0  0  0  0  0  0  0
   16.1513  -31.0906  -12.6848 H   0  0  0  0  0  0  0  0  0  0  0  0
   16.8194  -28.9641  -11.2470 H   0  0  0  0  0  0  0  0  0  0  0  0
   17.9181  -30.0828  -11.7031 H   0  0  0  0  0  0  0  0  0  0  0  0
   17.1669  -29.5540   -9.1245 H   0  0  0  0  0  0  0  0  0  0  0  0
   18.1529  -30.7683   -9.5938 H   0  0  0  0  0  0  0  0  0  0  0  0
   16.4354  -32.0290   -8.7665 H   0  0  0  0  0  0  0  0  0  0  0  0
   15.3154  -30.8975   -9.1297 H   0  0  0  0  0  0  0  0  0  0  0  0
   15.9598  -38.8309  -13.4708 H   0  0  0  0  0  0  0  0  0  0  0  0
   16.3777  -40.6326  -14.9894 H   0  0  0  0  0  0  0  0  0  0  0  0
   20.3387  -40.7590  -13.7461 H   0  0  0  0  0  0  0  0  0  0  0  0
   19.9053  -38.9846  -12.1951 H   0  0  0  0  0  0  0  0  0  0  0  0
   18.3950  -43.2205  -12.7093 H   0  0  0  0  0  0  0  0  0  0  0  0
   16.5761  -44.5012  -11.8471 H   0  0  0  0  0  0  0  0  0  0  0  0
   14.7878  -44.4911  -15.5973 H   0  0  0  0  0  0  0  0  0  0  0  0
   16.6062  -43.1906  -16.4565 H   0  0  0  0  0  0  0  0  0  0  0  0
   13.4281  -46.1276  -11.4094 H   0  0  0  0  0  0  0  0  0  0  0  0
   15.0167  -46.4654  -11.5793 H   0  0  0  0  0  0  0  0  0  0  0  0
   14.5491  -45.0252  -10.9679 H   0  0  0  0  0  0  0  0  0  0  0  0
   14.2592  -34.5261  -11.7658 H   0  0  0  0  0  0  0  0  0  0  0  0
  1  2  1  0  0  0  0
  1 13  1  0  0  0  0
  1 31  1  0  0  0  0
  2  3  1  0  0  0  0
  2  6  1  0  0  0  0
  2 32  1  0  0  0  0
  3  4  1  0  0  0  0
  3 33  1  0  0  0  0
  3 34  1  0  0  0  0
  4  5  1  0  0  0  0
  4  7  1  0  0  0  0
  4 61  1  0  0  0  0
  5  6  1  0  0  0  0
  5 35  1  0  0  0  0
  5 36  1  0  0  0  0
  6 37  1  0  0  0  0
  6 38  1  0  0  0  0
  7  8  1  0  0  0  0
  7 39  1  0  0  0  0
  7 40  1  0  0  0  0
  8  9  1  0  0  0  0
  8 12  1  0  0  0  0
  8 41  1  0  0  0  0
  9 10  1  0  0  0  0
  9 42  1  0  0  0  0
  9 43  1  0  0  0  0
 10 11  1  0  0  0  0
 10 44  1  0  0  0  0
 10 45  1  0  0  0  0
 11 12  1  0  0  0  0
 11 46  1  0  0  0  0
 11 47  1  0  0  0  0
 12 48  1  0  0  0  0
 12 49  1  0  0  0  0
 13 14  2  0  0  0  0
 13 15  1  0  0  0  0
 15 16  2  0  0  0  0
 15 20  1  0  0  0  0
 16 17  1  0  0  0  0
 16 50  1  0  0  0  0
 17 18  2  0  0  0  0
 17 51  1  0  0  0  0
 18 19  1  0  0  0  0
 18 21  1  0  0  0  0
 19 20  2  0  0  0  0
 19 52  1  0  0  0  0
 20 53  1  0  0  0  0
 21 22  1  0  0  0  0
 22 23  2  0  0  0  0
 22 27  1  0  0  0  0
 23 24  1  0  0  0  0
 23 54  1  0  0  0  0
 24 25  2  0  0  0  0
 24 55  1  0  0  0  0
 25 26  1  0  0  0  0
 25 28  1  0  0  0  0
 26 27  2  0  0  0  0
 26 56  1  0  0  0  0
 27 57  1  0  0  0  0
 28 29  1  0  0  0  0
 28 30  2  0  0  0  0
 29 58  1  0  0  0  0
 29 59  1  0  0  0  0
 29 60  1  0  0  0  0
M  CHG  1   4   1
M  END
> <BIOSOLVEIT.HYDE_ESTIMATED_AFFINITY_LOWER_BOUNDARY [nM]>
66495.841245

> <BIOSOLVEIT.HYDE_ESTIMATED_AFFINITY_UPPER_BOUNDARY [nM]>
6606754.982194

> <BIOSOLVEIT.HYDE_LIGAND_EFFICIENCY range: ++, +, 0, -, -->
--

> <BIOSOLVEIT.HYDE_LIGAND_LIPOPHILIC_EFFICIENCY range: ++, +, 0, -, -->
--

> <BIOSOLVEIT.INTER_CLASH range: red, yellow, green>
green

> <BIOSOLVEIT.INTRA_CLASH range: red, yellow, green>
green

> <BIOSOLVEIT.LOGP>
3.2587

> <BIOSOLVEIT.MOLECULAR WEIGHT>
407.531

> <BIOSOLVEIT.MOLECULE_CHECKSUM>
LTE4LjE0MzU7MC42MDQ3ODQ=

> <BIOSOLVEIT.TORSION_QUALITY range: red, yellow, green, not rotatable>
yellow

> <BIOSOLVEIT.TPSA>
59.84

$$$$
PV-001799431004.****
b8Hydescor01032215413D 1   1.00000     0.00000     0
Hydescorer 1.1.2 b8048283
 61 64  0  0  0  0            999 V2000
   15.3700  -38.5279  -11.0718 N   0  0  0  0  0  0  0  0  0  0  0  0
   15.0842  -37.3821  -10.1946 C   0  0  1  0  0  0  0  0  0  0  0  0
   16.3673  -36.5605   -9.8977 C   0  0  0  0  0  0  0  0  0  0  0  0
   16.1002  -35.2415  -10.5217 N   0  3  1  0  0  0  0  0  0  0  0  0
   14.6526  -35.0627  -10.4547 C   0  0  0  0  0  0  0  0  0  0  0  0
   14.1836  -36.4207  -10.9691 C   0  0  0  0  0  0  0  0  0  0  0  0
   16.7572  -34.1543   -9.7589 C   0  0  0  0  0  0  0  0  0  0  0  0
   16.0816  -32.8389  -10.2041 C   0  0  0  0  0  0  0  0  0  0  0  0
   16.4983  -31.6405   -9.3374 C   0  0  0  0  0  0  0  0  0  0  0  0
   16.2578  -30.4229  -10.2341 C   0  0  0  0  0  0  0  0  0  0  0  0
   16.2570  -30.9465  -11.6746 C   0  0  0  0  0  0  0  0  0  0  0  0
   16.6283  -32.4253  -11.5727 C   0  0  0  0  0  0  0  0  0  0  0  0
   15.9861  -38.4762  -12.2905 C   0  0  0  0  0  0  0  0  0  0  0  0
   16.3726  -37.3715  -12.6164 O   0  0  0  0  0  0  0  0  0  0  0  0
   16.2114  -39.6932  -13.0655 C   0  0  0  0  0  0  0  0  0  0  0  0
   16.6832  -40.8608  -12.4429 C   0  0  0  0  0  0  0  0  0  0  0  0
   17.1446  -41.9227  -13.2073 C   0  0  0  0  0  0  0  0  0  0  0  0
   17.1067  -41.8216  -14.5967 C   0  0  0  0  0  0  0  0  0  0  0  0
   16.4879  -40.7456  -15.2307 C   0  0  0  0  0  0  0  0  0  0  0  0
   16.0409  -39.6800  -14.4584 C   0  0  0  0  0  0  0  0  0  0  0  0
   17.8155  -42.7292  -15.3397 O   0  0  0  0  0  0  0  0  0  0  0  0
   19.0089  -42.1999  -15.7652 C   0  0  0  0  0  0  0  0  0  0  0  0
   19.1443  -41.8373  -17.1047 C   0  0  0  0  0  0  0  0  0  0  0  0
   20.2460  -41.0938  -17.4958 C   0  0  0  0  0  0  0  0  0  0  0  0
   21.2216  -40.7092  -16.5612 C   0  0  0  0  0  0  0  0  0  0  0  0
   21.1222  -41.1885  -15.2403 C   0  0  0  0  0  0  0  0  0  0  0  0
   20.0146  -41.9310  -14.8406 C   0  0  0  0  0  0  0  0  0  0  0  0
   22.2725  -39.7863  -16.9724 C   0  0  0  0  0  0  0  0  0  0  0  0
   23.2335  -39.1683  -15.9849 C   0  0  0  0  0  0  0  0  0  0  0  0
   22.3545  -39.4437  -18.1359 O   0  0  0  0  0  0  0  0  0  0  0  0
   15.0866  -39.4297  -10.7455 H   0  0  0  0  0  0  0  0  0  0  0  0
   14.6453  -37.6802   -9.3470 H   0  0  0  0  0  0  0  0  0  0  0  0
   17.1695  -36.9927  -10.3095 H   0  0  0  0  0  0  0  0  0  0  0  0
   16.5087  -36.4656   -8.9124 H   0  0  0  0  0  0  0  0  0  0  0  0
   14.3446  -34.3171  -11.0456 H   0  0  0  0  0  0  0  0  0  0  0  0
   14.3437  -34.8953   -9.5184 H   0  0  0  0  0  0  0  0  0  0  0  0
   13.2188  -36.5761  -10.7570 H   0  0  0  0  0  0  0  0  0  0  0  0
   14.3258  -36.5046  -11.9554 H   0  0  0  0  0  0  0  0  0  0  0  0
   17.7350  -34.1283   -9.9665 H   0  0  0  0  0  0  0  0  0  0  0  0
   16.6286  -34.2941   -8.7771 H   0  0  0  0  0  0  0  0  0  0  0  0
   15.0867  -32.9361  -10.2288 H   0  0  0  0  0  0  0  0  0  0  0  0
   17.4626  -31.7068   -9.0814 H   0  0  0  0  0  0  0  0  0  0  0  0
   15.9368  -31.5885   -8.5115 H   0  0  0  0  0  0  0  0  0  0  0  0
   16.9881  -29.7512  -10.1098 H   0  0  0  0  0  0  0  0  0  0  0  0
   15.3770  -30.0017  -10.0179 H   0  0  0  0  0  0  0  0  0  0  0  0
   16.9309  -30.4543  -12.2256 H   0  0  0  0  0  0  0  0  0  0  0  0
   15.3508  -30.8413  -12.0841 H   0  0  0  0  0  0  0  0  0  0  0  0
   16.1966  -32.9531  -12.3042 H   0  0  0  0  0  0  0  0  0  0  0  0
   17.6198  -32.5482  -11.6134 H   0  0  0  0  0  0  0  0  0  0  0  0
   16.6864  -40.9268  -11.4451 H   0  0  0  0  0  0  0  0  0  0  0  0
   17.4989  -42.7481  -12.7679 H   0  0  0  0  0  0  0  0  0  0  0  0
   16.3678  -40.7404  -16.2234 H   0  0  0  0  0  0  0  0  0  0  0  0
   15.5954  -38.8998  -14.8977 H   0  0  0  0  0  0  0  0  0  0  0  0
   18.4545  -42.1106  -17.7751 H   0  0  0  0  0  0  0  0  0  0  0  0
   20.3478  -40.8278  -18.4544 H   0  0  0  0  0  0  0  0  0  0  0  0
   21.8523  -40.9940  -14.5853 H   0  0  0  0  0  0  0  0  0  0  0  0
   19.9421  -42.2669  -13.9015 H   0  0  0  0  0  0  0  0  0  0  0  0
   23.8708  -38.5696  -16.4701 H   0  0  0  0  0  0  0  0  0  0  0  0
   22.7220  -38.6348  -15.3114 H   0  0  0  0  0  0  0  0  0  0  0  0
   23.7440  -39.8914  -15.5195 H   0  0  0  0  0  0  0  0  0  0  0  0
   16.4089  -35.2364  -11.4728 H   0  0  0  0  0  0  0  0  0  0  0  0
  1  2  1  0  0  0  0
  1 13  1  0  0  0  0
  1 31  1  0  0  0  0
  2  3  1  0  0  0  0
  2  6  1  0  0  0  0
  2 32  1  0  0  0  0
  3  4  1  0  0  0  0
  3 33  1  0  0  0  0
  3 34  1  0  0  0  0
  4  5  1  0  0  0  0
  4  7  1  0  0  0  0
  4 61  1  0  0  0  0
  5  6  1  0  0  0  0
  5 35  1  0  0  0  0
  5 36  1  0  0  0  0
  6 37  1  0  0  0  0
  6 38  1  0  0  0  0
  7  8  1  0  0  0  0
  7 39  1  0  0  0  0
  7 40  1  0  0  0  0
  8  9  1  0  0  0  0
  8 12  1  0  0  0  0
  8 41  1  0  0  0  0
  9 10  1  0  0  0  0
  9 42  1  0  0  0  0
  9 43  1  0  0  0  0
 10 11  1  0  0  0  0
 10 44  1  0  0  0  0
 10 45  1  0  0  0  0
 11 12  1  0  0  0  0
 11 46  1  0  0  0  0
 11 47  1  0  0  0  0
 12 48  1  0  0  0  0
 12 49  1  0  0  0  0
 13 14  2  0  0  0  0
 13 15  1  0  0  0  0
 15 16  2  0  0  0  0
 15 20  1  0  0  0  0
 16 17  1  0  0  0  0
 16 50  1  0  0  0  0
 17 18  2  0  0  0  0
 17 51  1  0  0  0  0
 18 19  1  0  0  0  0
 18 21  1  0  0  0  0
 19 20  2  0  0  0  0
 19 52  1  0  0  0  0
 20 53  1  0  0  0  0
 21 22  1  0  0  0  0
 22 23  2  0  0  0  0
 22 27  1  0  0  0  0
 23 24  1  0  0  0  0
 23 54  1  0  0  0  0
 24 25  2  0  0  0  0
 24 55  1  0  0  0  0
 25 26  1  0  0  0  0
 25 28  1  0  0  0  0
 26 27  2  0  0  0  0
 26 56  1  0  0  0  0
 27 57  1  0  0  0  0
 28 29  1  0  0  0  0
 28 30  2  0  0  0  0
 29 58  1  0  0  0  0
 29 59  1  0  0  0  0
 29 60  1  0  0  0  0
M  CHG  1   4   1
M  END
> <BIOSOLVEIT.HYDE_ESTIMATED_AFFINITY_LOWER_BOUNDARY [nM]>
28085999.385025

> <BIOSOLVEIT.HYDE_ESTIMATED_AFFINITY_UPPER_BOUNDARY [nM]>
2790510096.472617

> <BIOSOLVEIT.HYDE_LIGAND_EFFICIENCY range: ++, +, 0, -, -->
--

> <BIOSOLVEIT.HYDE_LIGAND_LIPOPHILIC_EFFICIENCY range: ++, +, 0, -, -->
--

> <BIOSOLVEIT.INTER_CLASH range: red, yellow, green>
green

> <BIOSOLVEIT.INTRA_CLASH range: red, yellow, green>
yellow

> <BIOSOLVEIT.LOGP>
3.2587

> <BIOSOLVEIT.MOLECULAR WEIGHT>
407.531

> <BIOSOLVEIT.MOLECULE_CHECKSUM>
LTMuMTU2MDM7MC4xMDUyMDE=

> <BIOSOLVEIT.TORSION_QUALITY range: red, yellow, green, not rotatable>
yellow

> <BIOSOLVEIT.TPSA>
59.84

$$$$
PV-001799426713.****
b8Hydescor01032215413D 1   1.00000     0.00000     0
Hydescorer 1.1.2 b8048283
 56 59  0  0  0  0            999 V2000
   19.6538  -36.5764  -14.9600 C   0  0  0  0  0  0  0  0  0  0  0  0
   19.2305  -36.4499  -13.6424 C   0  0  0  0  0  0  0  0  0  0  0  0
   18.8199  -37.5734  -12.9049 C   0  0  0  0  0  0  0  0  0  0  0  0
   18.8322  -38.8341  -13.5329 C   0  0  0  0  0  0  0  0  0  0  0  0
   19.2577  -38.9663  -14.8493 C   0  0  0  0  0  0  0  0  0  0  0  0
   19.6737  -37.8399  -15.5530 C   0  0  0  0  0  0  0  0  0  0  0  0
   20.0817  -38.0128  -16.8557 O   0  0  0  0  0  0  0  0  0  0  0  0
   21.3501  -38.3973  -17.2407 C   0  0  0  0  0  0  0  0  0  0  0  0
   22.2901  -37.4004  -17.4868 C   0  0  0  0  0  0  0  0  0  0  0  0
   23.5761  -37.7596  -17.8793 C   0  0  0  0  0  0  0  0  0  0  0  0
   23.9104  -39.1054  -18.0289 C   0  0  0  0  0  0  0  0  0  0  0  0
   22.9599  -40.0968  -17.7908 C   0  0  0  0  0  0  0  0  0  0  0  0
   21.6711  -39.7462  -17.3976 C   0  0  0  0  0  0  0  0  0  0  0  0
   18.3876  -37.4059  -11.5120 C   0  0  0  0  0  0  0  0  0  0  0  0
   17.1914  -36.7930  -11.2292 N   0  0  0  0  0  0  0  0  0  0  0  0
   19.0415  -37.7935  -10.5525 O   0  0  0  0  0  0  0  0  0  0  0  0
   16.7179  -36.6040   -9.8367 C   0  0  1  0  0  0  0  0  0  0  0  0
   16.6633  -35.1065   -9.4733 C   0  0  0  0  0  0  0  0  0  0  0  0
   15.4988  -34.6878  -10.2561 N   0  3  1  0  0  0  0  0  0  0  0  0
   14.4609  -35.6726   -9.9311 C   0  0  0  0  0  0  0  0  0  0  0  0
   15.2360  -36.9992   -9.8126 C   0  0  0  0  0  0  0  0  0  0  0  0
   15.0899  -33.3299   -9.8547 C   0  0  0  0  0  0  0  0  0  0  0  0
   16.1671  -32.3800  -10.4143 C   0  0  0  0  0  0  0  0  0  0  0  0
   15.6595  -31.5400  -11.5938 C   0  0  0  0  0  0  0  0  0  0  0  0
   16.5864  -30.3222  -11.6102 C   0  0  0  0  0  0  0  0  0  0  0  0
   17.1694  -30.2096  -10.1973 C   0  0  0  0  0  0  0  0  0  0  0  0
   16.4840  -31.3019   -9.3760 C   0  0  0  0  0  0  0  0  0  0  0  0
   19.9410  -35.7707  -15.4779 H   0  0  0  0  0  0  0  0  0  0  0  0
   19.2180  -35.5468  -13.2131 H   0  0  0  0  0  0  0  0  0  0  0  0
   18.5318  -39.6423  -13.0264 H   0  0  0  0  0  0  0  0  0  0  0  0
   19.2649  -39.8649  -15.2881 H   0  0  0  0  0  0  0  0  0  0  0  0
   22.0440  -36.4368  -17.3828 H   0  0  0  0  0  0  0  0  0  0  0  0
   24.2610  -37.0523  -18.0541 H   0  0  0  0  0  0  0  0  0  0  0  0
   24.8361  -39.3603  -18.3083 H   0  0  0  0  0  0  0  0  0  0  0  0
   23.2038  -41.0602  -17.9025 H   0  0  0  0  0  0  0  0  0  0  0  0
   20.9836  -40.4528  -17.2296 H   0  0  0  0  0  0  0  0  0  0  0  0
   16.6235  -36.4647  -11.9841 H   0  0  0  0  0  0  0  0  0  0  0  0
   17.2584  -37.1309   -9.1807 H   0  0  0  0  0  0  0  0  0  0  0  0
   17.4928  -34.6264   -9.7588 H   0  0  0  0  0  0  0  0  0  0  0  0
   16.5191  -34.9688   -8.4934 H   0  0  0  0  0  0  0  0  0  0  0  0
   13.7775  -35.7232  -10.6594 H   0  0  0  0  0  0  0  0  0  0  0  0
   14.0114  -35.4444   -9.0675 H   0  0  0  0  0  0  0  0  0  0  0  0
   15.0104  -37.4615   -8.9551 H   0  0  0  0  0  0  0  0  0  0  0  0
   15.0211  -37.6006  -10.5821 H   0  0  0  0  0  0  0  0  0  0  0  0
   15.0485  -33.2598   -8.8580 H   0  0  0  0  0  0  0  0  0  0  0  0
   14.1952  -33.1076  -10.2420 H   0  0  0  0  0  0  0  0  0  0  0  0
   16.9922  -32.8858  -10.6660 H   0  0  0  0  0  0  0  0  0  0  0  0
   14.7100  -31.2616  -11.4490 H   0  0  0  0  0  0  0  0  0  0  0  0
   15.7300  -32.0514  -12.4503 H   0  0  0  0  0  0  0  0  0  0  0  0
   16.0703  -29.4968  -11.8390 H   0  0  0  0  0  0  0  0  0  0  0  0
   17.3191  -30.4532  -12.2781 H   0  0  0  0  0  0  0  0  0  0  0  0
   16.9736  -29.3085   -9.8105 H   0  0  0  0  0  0  0  0  0  0  0  0
   18.1583  -30.3567  -10.2159 H   0  0  0  0  0  0  0  0  0  0  0  0
   17.0963  -31.6553   -8.6688 H   0  0  0  0  0  0  0  0  0  0  0  0
   15.6469  -30.9577   -8.9506 H   0  0  0  0  0  0  0  0  0  0  0  0
   15.7089  -34.7133  -11.2334 H   0  0  0  0  0  0  0  0  0  0  0  0
  1  2  2  0  0  0  0
  1  6  1  0  0  0  0
  1 28  1  0  0  0  0
  2  3  1  0  0  0  0
  2 29  1  0  0  0  0
  3  4  2  0  0  0  0
  3 14  1  0  0  0  0
  4  5  1  0  0  0  0
  4 30  1  0  0  0  0
  5  6  2  0  0  0  0
  5 31  1  0  0  0  0
  6  7  1  0  0  0  0
  7  8  1  0  0  0  0
  8  9  2  0  0  0  0
  8 13  1  0  0  0  0
  9 10  1  0  0  0  0
  9 32  1  0  0  0  0
 10 11  2  0  0  0  0
 10 33  1  0  0  0  0
 11 12  1  0  0  0  0
 11 34  1  0  0  0  0
 12 13  2  0  0  0  0
 12 35  1  0  0  0  0
 13 36  1  0  0  0  0
 14 15  1  0  0  0  0
 14 16  2  0  0  0  0
 15 17  1  0  0  0  0
 15 37  1  0  0  0  0
 17 18  1  0  0  0  0
 17 21  1  0  0  0  0
 17 38  1  0  0  0  0
 18 19  1  0  0  0  0
 18 39  1  0  0  0  0
 18 40  1  0  0  0  0
 19 20  1  0  0  0  0
 19 22  1  0  0  0  0
 19 56  1  0  0  0  0
 20 21  1  0  0  0  0
 20 41  1  0  0  0  0
 20 42  1  0  0  0  0
 21 43  1  0  0  0  0
 21 44  1  0  0  0  0
 22 23  1  0  0  0  0
 22 45  1  0  0  0  0
 22 46  1  0  0  0  0
 23 24  1  0  0  0  0
 23 27  1  0  0  0  0
 23 47  1  0  0  0  0
 24 25  1  0  0  0  0
 24 48  1  0  0  0  0
 24 49  1  0  0  0  0
 25 26  1  0  0  0  0
 25 50  1  0  0  0  0
 25 51  1  0  0  0  0
 26 27  1  0  0  0  0
 26 52  1  0  0  0  0
 26 53  1  0  0  0  0
 27 54  1  0  0  0  0
 27 55  1  0  0  0  0
M  CHG  1  19   1
M  END
> <BIOSOLVEIT.HYDE_ESTIMATED_AFFINITY_LOWER_BOUNDARY [nM]>
91.476012

> <BIOSOLVEIT.HYDE_ESTIMATED_AFFINITY_UPPER_BOUNDARY [nM]>
9088.682672

> <BIOSOLVEIT.HYDE_LIGAND_EFFICIENCY range: ++, +, 0, -, -->
0

> <BIOSOLVEIT.HYDE_LIGAND_LIPOPHILIC_EFFICIENCY range: ++, +, 0, -, -->
-

> <BIOSOLVEIT.INTER_CLASH range: red, yellow, green>
green

> <BIOSOLVEIT.INTRA_CLASH range: red, yellow, green>
green

> <BIOSOLVEIT.LOGP>
3.0561

> <BIOSOLVEIT.MOLECULAR WEIGHT>
365.494

> <BIOSOLVEIT.MOLECULE_CHECKSUM>
LTM0LjQ3Njk7MS4yNzY5Mg==

> <BIOSOLVEIT.TORSION_QUALITY range: red, yellow, green, not rotatable>
red

> <BIOSOLVEIT.TPSA>
42.77

$$$$
PV-001799426713.****
b8Hydescor01032215413D 1   1.00000     0.00000     0
Hydescorer 1.1.2 b8048283
 56 59  0  0  0  0            999 V2000
   21.1051  -39.3185  -13.4457 C   0  0  0  0  0  0  0  0  0  0  0  0
   20.3188  -38.2792  -13.9279 C   0  0  0  0  0  0  0  0  0  0  0  0
   19.8565  -37.2658  -13.0710 C   0  0  0  0  0  0  0  0  0  0  0  0
   20.1951  -37.3306  -11.7054 C   0  0  0  0  0  0  0  0  0  0  0  0
   20.9839  -38.3661  -11.2189 C   0  0  0  0  0  0  0  0  0  0  0  0
   21.4414  -39.3491  -12.0913 C   0  0  0  0  0  0  0  0  0  0  0  0
   22.2147  -40.3603  -11.5686 O   0  0  0  0  0  0  0  0  0  0  0  0
   21.7272  -41.5609  -11.0936 C   0  0  0  0  0  0  0  0  0  0  0  0
   20.4213  -41.9135  -11.4223 C   0  0  0  0  0  0  0  0  0  0  0  0
   19.9030  -43.1175  -10.9545 C   0  0  0  0  0  0  0  0  0  0  0  0
   20.6871  -43.9535  -10.1598 C   0  0  0  0  0  0  0  0  0  0  0  0
   21.9902  -43.5877   -9.8265 C   0  0  0  0  0  0  0  0  0  0  0  0
   22.5166  -42.3852  -10.2906 C   0  0  0  0  0  0  0  0  0  0  0  0
   19.0355  -36.1770  -13.6150 C   0  0  0  0  0  0  0  0  0  0  0  0
   18.2179  -35.4484  -12.7861 N   0  0  0  0  0  0  0  0  0  0  0  0
   19.0341  -35.8606  -14.7975 O   0  0  0  0  0  0  0  0  0  0  0  0
   17.3729  -34.3411  -13.2948 C   0  0  1  0  0  0  0  0  0  0  0  0
   16.1010  -34.8879  -13.9737 C   0  0  0  0  0  0  0  0  0  0  0  0
   15.3490  -35.3378  -12.8006 N   0  3  1  0  0  0  0  0  0  0  0  0
   15.3883  -34.1987  -11.8766 C   0  0  0  0  0  0  0  0  0  0  0  0
   16.8022  -33.6169  -12.0690 C   0  0  0  0  0  0  0  0  0  0  0  0
   13.9646  -35.6614  -13.1895 C   0  0  0  0  0  0  0  0  0  0  0  0
   13.6852  -37.0700  -12.6293 C   0  0  0  0  0  0  0  0  0  0  0  0
   12.1901  -37.4149  -12.6153 C   0  0  0  0  0  0  0  0  0  0  0  0
   12.1607  -38.9450  -12.6139 C   0  0  0  0  0  0  0  0  0  0  0  0
   13.5096  -39.3991  -13.1825 C   0  0  0  0  0  0  0  0  0  0  0  0
   14.2397  -38.1204  -13.5937 C   0  0  0  0  0  0  0  0  0  0  0  0
   21.4267  -40.0369  -14.0625 H   0  0  0  0  0  0  0  0  0  0  0  0
   20.0784  -38.2520  -14.8983 H   0  0  0  0  0  0  0  0  0  0  0  0
   19.8644  -36.6242  -11.0796 H   0  0  0  0  0  0  0  0  0  0  0  0
   21.2212  -38.4047  -10.2482 H   0  0  0  0  0  0  0  0  0  0  0  0
   19.8616  -41.3082  -11.9883 H   0  0  0  0  0  0  0  0  0  0  0  0
   18.9677  -43.3834  -11.1883 H   0  0  0  0  0  0  0  0  0  0  0  0
   20.3128  -44.8192   -9.8275 H   0  0  0  0  0  0  0  0  0  0  0  0
   22.5473  -44.1893   -9.2539 H   0  0  0  0  0  0  0  0  0  0  0  0
   23.4493  -42.1154  -10.0513 H   0  0  0  0  0  0  0  0  0  0  0  0
   18.1917  -35.6710  -11.8115 H   0  0  0  0  0  0  0  0  0  0  0  0
   17.8827  -33.7232  -13.8933 H   0  0  0  0  0  0  0  0  0  0  0  0
   16.3087  -35.6454  -14.5925 H   0  0  0  0  0  0  0  0  0  0  0  0
   15.6126  -34.1730  -14.4741 H   0  0  0  0  0  0  0  0  0  0  0  0
   15.2529  -34.5008  -10.9329 H   0  0  0  0  0  0  0  0  0  0  0  0
   14.6900  -33.5235  -12.1139 H   0  0  0  0  0  0  0  0  0  0  0  0
   16.7563  -32.6316  -12.2339 H   0  0  0  0  0  0  0  0  0  0  0  0
   17.3669  -33.7940  -11.2629 H   0  0  0  0  0  0  0  0  0  0  0  0
   13.8738  -35.6590  -14.1854 H   0  0  0  0  0  0  0  0  0  0  0  0
   13.3287  -34.9980  -12.7952 H   0  0  0  0  0  0  0  0  0  0  0  0
   14.0840  -37.1767  -11.7184 H   0  0  0  0  0  0  0  0  0  0  0  0
   11.7343  -37.0518  -13.4279 H   0  0  0  0  0  0  0  0  0  0  0  0
   11.7493  -37.0506  -11.7949 H   0  0  0  0  0  0  0  0  0  0  0  0
   11.4128  -39.2779  -13.1881 H   0  0  0  0  0  0  0  0  0  0  0  0
   12.0439  -39.2886  -11.6821 H   0  0  0  0  0  0  0  0  0  0  0  0
   13.3713  -39.9917  -13.9760 H   0  0  0  0  0  0  0  0  0  0  0  0
   14.0332  -39.8907  -12.4867 H   0  0  0  0  0  0  0  0  0  0  0  0
   15.2283  -38.2214  -13.4829 H   0  0  0  0  0  0  0  0  0  0  0  0
   14.0334  -37.8798  -14.5421 H   0  0  0  0  0  0  0  0  0  0  0  0
   15.7903  -36.1352  -12.3890 H   0  0  0  0  0  0  0  0  0  0  0  0
  1  2  2  0  0  0  0
  1  6  1  0  0  0  0
  1 28  1  0  0  0  0
  2  3  1  0  0  0  0
  2 29  1  0  0  0  0
  3  4  2  0  0  0  0
  3 14  1  0  0  0  0
  4  5  1  0  0  0  0
  4 30  1  0  0  0  0
  5  6  2  0  0  0  0
  5 31  1  0  0  0  0
  6  7  1  0  0  0  0
  7  8  1  0  0  0  0
  8  9  2  0  0  0  0
  8 13  1  0  0  0  0
  9 10  1  0  0  0  0
  9 32  1  0  0  0  0
 10 11  2  0  0  0  0
 10 33  1  0  0  0  0
 11 12  1  0  0  0  0
 11 34  1  0  0  0  0
 12 13  2  0  0  0  0
 12 35  1  0  0  0  0
 13 36  1  0  0  0  0
 14 15  1  0  0  0  0
 14 16  2  0  0  0  0
 15 17  1  0  0  0  0
 15 37  1  0  0  0  0
 17 18  1  0  0  0  0
 17 21  1  0  0  0  0
 17 38  1  0  0  0  0
 18 19  1  0  0  0  0
 18 39  1  0  0  0  0
 18 40  1  0  0  0  0
 19 20  1  0  0  0  0
 19 22  1  0  0  0  0
 19 56  1  0  0  0  0
 20 21  1  0  0  0  0
 20 41  1  0  0  0  0
 20 42  1  0  0  0  0
 21 43  1  0  0  0  0
 21 44  1  0  0  0  0
 22 23  1  0  0  0  0
 22 45  1  0  0  0  0
 22 46  1  0  0  0  0
 23 24  1  0  0  0  0
 23 27  1  0  0  0  0
 23 47  1  0  0  0  0
 24 25  1  0  0  0  0
 24 48  1  0  0  0  0
 24 49  1  0  0  0  0
 25 26  1  0  0  0  0
 25 50  1  0  0  0  0
 25 51  1  0  0  0  0
 26 27  1  0  0  0  0
 26 52  1  0  0  0  0
 26 53  1  0  0  0  0
 27 54  1  0  0  0  0
 27 55  1  0  0  0  0
M  CHG  1  19   1
M  END
> <BIOSOLVEIT.HYDE_ESTIMATED_AFFINITY_LOWER_BOUNDARY [nM]>
9104800.374204

> <BIOSOLVEIT.HYDE_ESTIMATED_AFFINITY_UPPER_BOUNDARY [nM]>
904615749.017278

> <BIOSOLVEIT.HYDE_LIGAND_EFFICIENCY range: ++, +, 0, -, -->
--

> <BIOSOLVEIT.HYDE_LIGAND_LIPOPHILIC_EFFICIENCY range: ++, +, 0, -, -->
--

> <BIOSOLVEIT.INTER_CLASH range: red, yellow, green>
green

> <BIOSOLVEIT.INTRA_CLASH range: red, yellow, green>
green

> <BIOSOLVEIT.LOGP>
3.0561

> <BIOSOLVEIT.MOLECULAR WEIGHT>
365.494

> <BIOSOLVEIT.MOLECULE_CHECKSUM>
LTUuOTQ4NTswLjIyMDMxNQ==

> <BIOSOLVEIT.TORSION_QUALITY range: red, yellow, green, not rotatable>
green

> <BIOSOLVEIT.TPSA>
42.77

$$$$
PV-001799426713.****
b8Hydescor01032215413D 1   1.00000     0.00000     0
Hydescorer 1.1.2 b8048283
 56 59  0  0  0  0            999 V2000
   20.2378  -39.0669  -14.3135 C   0  0  0  0  0  0  0  0  0  0  0  0
   19.5476  -38.9833  -13.1103 C   0  0  0  0  0  0  0  0  0  0  0  0
   18.8416  -37.8192  -12.7622 C   0  0  0  0  0  0  0  0  0  0  0  0
   18.8578  -36.7285  -13.6533 C   0  0  0  0  0  0  0  0  0  0  0  0
   19.5440  -36.8084  -14.8592 C   0  0  0  0  0  0  0  0  0  0  0  0
   20.2227  -37.9783  -15.1870 C   0  0  0  0  0  0  0  0  0  0  0  0
   20.8944  -38.0144  -16.3874 O   0  0  0  0  0  0  0  0  0  0  0  0
   22.2361  -37.7337  -16.5492 C   0  0  0  0  0  0  0  0  0  0  0  0
   22.7145  -37.5472  -17.8432 C   0  0  0  0  0  0  0  0  0  0  0  0
   24.0639  -37.2657  -18.0358 C   0  0  0  0  0  0  0  0  0  0  0  0
   24.9227  -37.1795  -16.9403 C   0  0  0  0  0  0  0  0  0  0  0  0
   24.4373  -37.3783  -15.6489 C   0  0  0  0  0  0  0  0  0  0  0  0
   23.0888  -37.6601  -15.4472 C   0  0  0  0  0  0  0  0  0  0  0  0
   18.1150  -37.7675  -11.4876 C   0  0  0  0  0  0  0  0  0  0  0  0
   17.7685  -36.5570  -10.9389 N   0  0  0  0  0  0  0  0  0  0  0  0
   17.7813  -38.7651  -10.8616 O   0  0  0  0  0  0  0  0  0  0  0  0
   17.0348  -36.4607   -9.6538 C   0  0  1  0  0  0  0  0  0  0  0  0
   16.7946  -34.9874   -9.2673 C   0  0  0  0  0  0  0  0  0  0  0  0
   15.7631  -34.6243  -10.2411 N   0  3  1  0  0  0  0  0  0  0  0  0
   14.7658  -35.6957  -10.1406 C   0  0  0  0  0  0  0  0  0  0  0  0
   15.6101  -36.9651   -9.9155 C   0  0  0  0  0  0  0  0  0  0  0  0
   15.1801  -33.3180   -9.8866 C   0  0  0  0  0  0  0  0  0  0  0  0
   16.1367  -32.2560  -10.4635 C   0  0  0  0  0  0  0  0  0  0  0  0
   15.4311  -31.2768  -11.4111 C   0  0  0  0  0  0  0  0  0  0  0  0
   16.3235  -30.0336  -11.3944 C   0  0  0  0  0  0  0  0  0  0  0  0
   17.1265  -30.1012  -10.0907 C   0  0  0  0  0  0  0  0  0  0  0  0
   16.6009  -31.3257   -9.3412 C   0  0  0  0  0  0  0  0  0  0  0  0
   20.7400  -39.8984  -14.5511 H   0  0  0  0  0  0  0  0  0  0  0  0
   19.5534  -39.7625  -12.4834 H   0  0  0  0  0  0  0  0  0  0  0  0
   18.3706  -35.8881  -13.4158 H   0  0  0  0  0  0  0  0  0  0  0  0
   19.5500  -36.0303  -15.4873 H   0  0  0  0  0  0  0  0  0  0  0  0
   22.0955  -37.6148  -18.6256 H   0  0  0  0  0  0  0  0  0  0  0  0
   24.4178  -37.1251  -18.9604 H   0  0  0  0  0  0  0  0  0  0  0  0
   25.8911  -36.9742  -17.0820 H   0  0  0  0  0  0  0  0  0  0  0  0
   25.0579  -37.3185  -14.8670 H   0  0  0  0  0  0  0  0  0  0  0  0
   22.7356  -37.8079  -14.5234 H   0  0  0  0  0  0  0  0  0  0  0  0
   18.0181  -35.7165  -11.4198 H   0  0  0  0  0  0  0  0  0  0  0  0
   17.4869  -36.9724   -8.9232 H   0  0  0  0  0  0  0  0  0  0  0  0
   17.6210  -34.4359   -9.3812 H   0  0  0  0  0  0  0  0  0  0  0  0
   16.4630  -34.9009   -8.3279 H   0  0  0  0  0  0  0  0  0  0  0  0
   14.2334  -35.7669  -10.9840 H   0  0  0  0  0  0  0  0  0  0  0  0
   14.1491  -35.5368   -9.3696 H   0  0  0  0  0  0  0  0  0  0  0  0
   15.2694  -37.4774   -9.1272 H   0  0  0  0  0  0  0  0  0  0  0  0
   15.5885  -37.5489  -10.7271 H   0  0  0  0  0  0  0  0  0  0  0  0
   15.1153  -33.2244   -8.8931 H   0  0  0  0  0  0  0  0  0  0  0  0
   14.2703  -33.2223  -10.2905 H   0  0  0  0  0  0  0  0  0  0  0  0
   16.9179  -32.6876  -10.9145 H   0  0  0  0  0  0  0  0  0  0  0  0
   14.5134  -31.0597  -11.0783 H   0  0  0  0  0  0  0  0  0  0  0  0
   15.3696  -31.6575  -12.3337 H   0  0  0  0  0  0  0  0  0  0  0  0
   15.7641  -29.2050  -11.4144 H   0  0  0  0  0  0  0  0  0  0  0  0
   16.9399  -30.0388  -12.1819 H   0  0  0  0  0  0  0  0  0  0  0  0
   16.9820  -29.2729   -9.5493 H   0  0  0  0  0  0  0  0  0  0  0  0
   18.1015  -30.2051  -10.2871 H   0  0  0  0  0  0  0  0  0  0  0  0
   17.3255  -31.7520   -8.7997 H   0  0  0  0  0  0  0  0  0  0  0  0
   15.8387  -31.0789   -8.7427 H   0  0  0  0  0  0  0  0  0  0  0  0
   16.1499  -34.5943  -11.1629 H   0  0  0  0  0  0  0  0  0  0  0  0
  1  2  2  0  0  0  0
  1  6  1  0  0  0  0
  1 28  1  0  0  0  0
  2  3  1  0  0  0  0
  2 29  1  0  0  0  0
  3  4  2  0  0  0  0
  3 14  1  0  0  0  0
  4  5  1  0  0  0  0
  4 30  1  0  0  0  0
  5  6  2  0  0  0  0
  5 31  1  0  0  0  0
  6  7  1  0  0  0  0
  7  8  1  0  0  0  0
  8  9  2  0  0  0  0
  8 13  1  0  0  0  0
  9 10  1  0  0  0  0
  9 32  1  0  0  0  0
 10 11  2  0  0  0  0
 10 33  1  0  0  0  0
 11 12  1  0  0  0  0
 11 34  1  0  0  0  0
 12 13  2  0  0  0  0
 12 35  1  0  0  0  0
 13 36  1  0  0  0  0
 14 15  1  0  0  0  0
 14 16  2  0  0  0  0
 15 17  1  0  0  0  0
 15 37  1  0  0  0  0
 17 18  1  0  0  0  0
 17 21  1  0  0  0  0
 17 38  1  0  0  0  0
 18 19  1  0  0  0  0
 18 39  1  0  0  0  0
 18 40  1  0  0  0  0
 19 20  1  0  0  0  0
 19 22  1  0  0  0  0
 19 56  1  0  0  0  0
 20 21  1  0  0  0  0
 20 41  1  0  0  0  0
 20 42  1  0  0  0  0
 21 43  1  0  0  0  0
 21 44  1  0  0  0  0
 22 23  1  0  0  0  0
 22 45  1  0  0  0  0
 22 46  1  0  0  0  0
 23 24  1  0  0  0  0
 23 27  1  0  0  0  0
 23 47  1  0  0  0  0
 24 25  1  0  0  0  0
 24 48  1  0  0  0  0
 24 49  1  0  0  0  0
 25 26  1  0  0  0  0
 25 50  1  0  0  0  0
 25 51  1  0  0  0  0
 26 27  1  0  0  0  0
 26 52  1  0  0  0  0
 26 53  1  0  0  0  0
 27 54  1  0  0  0  0
 27 55  1  0  0  0  0
M  CHG  1  19   1
M  END
> <BIOSOLVEIT.HYDE_ESTIMATED_AFFINITY_LOWER_BOUNDARY [nM]>
672.828883

> <BIOSOLVEIT.HYDE_ESTIMATED_AFFINITY_UPPER_BOUNDARY [nM]>
66849.527655

> <BIOSOLVEIT.HYDE_LIGAND_EFFICIENCY range: ++, +, 0, -, -->
-

> <BIOSOLVEIT.HYDE_LIGAND_LIPOPHILIC_EFFICIENCY range: ++, +, 0, -, -->
-

> <BIOSOLVEIT.INTER_CLASH range: red, yellow, green>
green

> <BIOSOLVEIT.INTRA_CLASH range: red, yellow, green>
green

> <BIOSOLVEIT.LOGP>
3.0561

> <BIOSOLVEIT.MOLECULAR WEIGHT>
365.494

> <BIOSOLVEIT.MOLECULE_CHECKSUM>
LTI5LjUzMDQ7MS4wOTM3Mg==

> <BIOSOLVEIT.TORSION_QUALITY range: red, yellow, green, not rotatable>
yellow

> <BIOSOLVEIT.TPSA>
42.77

$$$$
PV-001799426713.****
b8Hydescor01032215413D 1   1.00000     0.00000     0
Hydescorer 1.1.2 b8048283
 56 59  0  0  0  0            999 V2000
   14.2447  -33.8000  -12.5973 C   0  0  0  0  0  0  0  0  0  0  0  0
   14.1975  -35.0531  -13.1960 C   0  0  0  0  0  0  0  0  0  0  0  0
   14.3419  -36.2240  -12.4324 C   0  0  0  0  0  0  0  0  0  0  0  0
   14.5500  -36.1031  -11.0447 C   0  0  0  0  0  0  0  0  0  0  0  0
   14.5949  -34.8522  -10.4408 C   0  0  0  0  0  0  0  0  0  0  0  0
   14.4339  -33.7086  -11.2174 C   0  0  0  0  0  0  0  0  0  0  0  0
   14.4909  -32.4894  -10.5820 O   0  0  0  0  0  0  0  0  0  0  0  0
   15.5530  -31.6109  -10.6545 C   0  0  0  0  0  0  0  0  0  0  0  0
   16.2193  -31.2904   -9.4750 C   0  0  0  0  0  0  0  0  0  0  0  0
   17.2922  -30.4049   -9.5184 C   0  0  0  0  0  0  0  0  0  0  0  0
   17.6856  -29.8434  -10.7330 C   0  0  0  0  0  0  0  0  0  0  0  0
   17.0059  -30.1615  -11.9078 C   0  0  0  0  0  0  0  0  0  0  0  0
   15.9317  -31.0467  -11.8732 C   0  0  0  0  0  0  0  0  0  0  0  0
   14.2774  -37.5324  -13.0951 C   0  0  0  0  0  0  0  0  0  0  0  0
   13.8544  -38.6386  -12.3996 N   0  0  0  0  0  0  0  0  0  0  0  0
   14.5812  -37.7092  -14.2677 O   0  0  0  0  0  0  0  0  0  0  0  0
   13.7747  -39.9779  -13.0312 C   0  0  1  0  0  0  0  0  0  0  0  0
   15.1795  -40.4960  -13.3996 C   0  0  0  0  0  0  0  0  0  0  0  0
   15.7014  -40.8117  -12.0684 N   0  3  1  0  0  0  0  0  0  0  0  0
   14.6462  -41.6123  -11.4375 C   0  0  0  0  0  0  0  0  0  0  0  0
   13.3416  -40.9614  -11.9368 C   0  0  0  0  0  0  0  0  0  0  0  0
   16.9524  -41.5811  -12.1925 C   0  0  0  0  0  0  0  0  0  0  0  0
   17.8882  -40.7296  -13.0728 C   0  0  0  0  0  0  0  0  0  0  0  0
   18.8671  -39.8828  -12.2486 C   0  0  0  0  0  0  0  0  0  0  0  0
   20.0247  -39.6087  -13.2113 C   0  0  0  0  0  0  0  0  0  0  0  0
   19.9652  -40.7095  -14.2760 C   0  0  0  0  0  0  0  0  0  0  0  0
   18.8399  -41.6486  -13.8412 C   0  0  0  0  0  0  0  0  0  0  0  0
   14.1442  -32.9722  -13.1493 H   0  0  0  0  0  0  0  0  0  0  0  0
   14.0588  -35.1227  -14.1839 H   0  0  0  0  0  0  0  0  0  0  0  0
   14.6666  -36.9258  -10.4882 H   0  0  0  0  0  0  0  0  0  0  0  0
   14.7419  -34.7743   -9.4548 H   0  0  0  0  0  0  0  0  0  0  0  0
   15.9302  -31.6920   -8.6060 H   0  0  0  0  0  0  0  0  0  0  0  0
   17.7814  -30.1711   -8.6782 H   0  0  0  0  0  0  0  0  0  0  0  0
   18.4588  -29.2099  -10.7613 H   0  0  0  0  0  0  0  0  0  0  0  0
   17.2899  -29.7538  -12.7756 H   0  0  0  0  0  0  0  0  0  0  0  0
   15.4375  -31.2754  -12.7120 H   0  0  0  0  0  0  0  0  0  0  0  0
   13.5926  -38.5380  -11.4398 H   0  0  0  0  0  0  0  0  0  0  0  0
   13.1526  -39.9884  -13.8141 H   0  0  0  0  0  0  0  0  0  0  0  0
   15.7259  -39.7921  -13.8535 H   0  0  0  0  0  0  0  0  0  0  0  0
   15.1333  -41.3084  -13.9808 H   0  0  0  0  0  0  0  0  0  0  0  0
   14.7098  -41.5633  -10.4408 H   0  0  0  0  0  0  0  0  0  0  0  0
   14.7017  -42.5674  -11.7286 H   0  0  0  0  0  0  0  0  0  0  0  0
   12.7255  -41.6541  -12.3117 H   0  0  0  0  0  0  0  0  0  0  0  0
   12.8840  -40.4769  -11.1912 H   0  0  0  0  0  0  0  0  0  0  0  0
   16.7756  -42.4645  -12.6265 H   0  0  0  0  0  0  0  0  0  0  0  0
   17.3610  -41.7281  -11.2918 H   0  0  0  0  0  0  0  0  0  0  0  0
   17.3624  -40.1560  -13.7008 H   0  0  0  0  0  0  0  0  0  0  0  0
   19.1846  -40.3877  -11.4460 H   0  0  0  0  0  0  0  0  0  0  0  0
   18.4382  -39.0280  -11.9565 H   0  0  0  0  0  0  0  0  0  0  0  0
   20.8970  -39.6448  -12.7237 H   0  0  0  0  0  0  0  0  0  0  0  0
   19.9171  -38.7096  -13.6358 H   0  0  0  0  0  0  0  0  0  0  0  0
   20.8342  -41.2026  -14.3162 H   0  0  0  0  0  0  0  0  0  0  0  0
   19.7633  -40.3160  -15.1729 H   0  0  0  0  0  0  0  0  0  0  0  0
   18.3845  -42.0527  -14.6344 H   0  0  0  0  0  0  0  0  0  0  0  0
   19.1891  -42.3763  -13.2508 H   0  0  0  0  0  0  0  0  0  0  0  0
   15.8592  -39.9722  -11.5483 H   0  0  0  0  0  0  0  0  0  0  0  0
  1  2  2  0  0  0  0
  1  6  1  0  0  0  0
  1 28  1  0  0  0  0
  2  3  1  0  0  0  0
  2 29  1  0  0  0  0
  3  4  2  0  0  0  0
  3 14  1  0  0  0  0
  4  5  1  0  0  0  0
  4 30  1  0  0  0  0
  5  6  2  0  0  0  0
  5 31  1  0  0  0  0
  6  7  1  0  0  0  0
  7  8  1  0  0  0  0
  8  9  2  0  0  0  0
  8 13  1  0  0  0  0
  9 10  1  0  0  0  0
  9 32  1  0  0  0  0
 10 11  2  0  0  0  0
 10 33  1  0  0  0  0
 11 12  1  0  0  0  0
 11 34  1  0  0  0  0
 12 13  2  0  0  0  0
 12 35  1  0  0  0  0
 13 36  1  0  0  0  0
 14 15  1  0  0  0  0
 14 16  2  0  0  0  0
 15 17  1  0  0  0  0
 15 37  1  0  0  0  0
 17 18  1  0  0  0  0
 17 21  1  0  0  0  0
 17 38  1  0  0  0  0
 18 19  1  0  0  0  0
 18 39  1  0  0  0  0
 18 40  1  0  0  0  0
 19 20  1  0  0  0  0
 19 22  1  0  0  0  0
 19 56  1  0  0  0  0
 20 21  1  0  0  0  0
 20 41  1  0  0  0  0
 20 42  1  0  0  0  0
 21 43  1  0  0  0  0
 21 44  1  0  0  0  0
 22 23  1  0  0  0  0
 22 45  1  0  0  0  0
 22 46  1  0  0  0  0
 23 24  1  0  0  0  0
 23 27  1  0  0  0  0
 23 47  1  0  0  0  0
 24 25  1  0  0  0  0
 24 48  1  0  0  0  0
 24 49  1  0  0  0  0
 25 26  1  0  0  0  0
 25 50  1  0  0  0  0
 25 51  1  0  0  0  0
 26 27  1  0  0  0  0
 26 52  1  0  0  0  0
 26 53  1  0  0  0  0
 27 54  1  0  0  0  0
 27 55  1  0  0  0  0
M  CHG  1  19   1
M  END
> <BIOSOLVEIT.HYDE_ESTIMATED_AFFINITY_LOWER_BOUNDARY [nM]>
339563.576726

> <BIOSOLVEIT.HYDE_ESTIMATED_AFFINITY_UPPER_BOUNDARY [nM]>
33737649.006446

> <BIOSOLVEIT.HYDE_LIGAND_EFFICIENCY range: ++, +, 0, -, -->
--

> <BIOSOLVEIT.HYDE_LIGAND_LIPOPHILIC_EFFICIENCY range: ++, +, 0, -, -->
--

> <BIOSOLVEIT.INTER_CLASH range: red, yellow, green>
green

> <BIOSOLVEIT.INTRA_CLASH range: red, yellow, green>
green

> <BIOSOLVEIT.LOGP>
3.0561

> <BIOSOLVEIT.MOLECULAR WEIGHT>
365.494

> <BIOSOLVEIT.MOLECULE_CHECKSUM>
LTE0LjEwMTU7MC41MjIyNzk=

> <BIOSOLVEIT.TORSION_QUALITY range: red, yellow, green, not rotatable>
green

> <BIOSOLVEIT.TPSA>
42.77

$$$$
PV-001799429813.****
b8Hydescor01032215413D 1   1.00000     0.00000     0
Hydescorer 1.1.2 b8048283
 55 58  0  0  0  0            999 V2000
   20.5013  -37.3532  -12.2496 C   0  0  0  0  0  0  0  0  0  0  0  0
   19.2002  -37.1557  -11.8050 C   0  0  0  0  0  0  0  0  0  0  0  0
   18.2788  -38.2166  -11.7749 C   0  0  0  0  0  0  0  0  0  0  0  0
   18.6987  -39.4888  -12.2117 C   0  0  0  0  0  0  0  0  0  0  0  0
   20.0004  -39.6903  -12.6571 C   0  0  0  0  0  0  0  0  0  0  0  0
   20.8909  -38.6214  -12.6802 C   0  0  0  0  0  0  0  0  0  0  0  0
   16.9128  -37.9745  -11.2979 C   0  0  0  0  0  0  0  0  0  0  0  0
   16.1172  -37.0467  -11.9249 N   0  0  0  0  0  0  0  0  0  0  0  0
   16.4184  -38.5660  -10.3481 O   0  0  0  0  0  0  0  0  0  0  0  0
   14.7306  -36.7696  -11.4767 C   0  0  1  0  0  0  0  0  0  0  0  0
   14.7139  -35.7172  -10.3513 C   0  0  0  0  0  0  0  0  0  0  0  0
   15.0641  -34.5155  -11.1119 N   0  3  1  0  0  0  0  0  0  0  0  0
   14.1595  -34.5303  -12.2694 C   0  0  0  0  0  0  0  0  0  0  0  0
   14.0345  -36.0260  -12.6222 C   0  0  0  0  0  0  0  0  0  0  0  0
   14.8464  -33.3176  -10.2798 C   0  0  0  0  0  0  0  0  0  0  0  0
   16.0273  -32.3726  -10.5797 C   0  0  0  0  0  0  0  0  0  0  0  0
   15.7062  -31.3564  -11.6833 C   0  0  0  0  0  0  0  0  0  0  0  0
   16.6823  -30.2047  -11.4249 C   0  0  0  0  0  0  0  0  0  0  0  0
   17.0995  -30.3185   -9.9550 C   0  0  0  0  0  0  0  0  0  0  0  0
   16.2670  -31.4625   -9.3737 C   0  0  0  0  0  0  0  0  0  0  0  0
   22.1700  -38.8594  -13.1247 O   0  0  0  0  0  0  0  0  0  0  0  0
   23.1938  -37.9332  -13.0912 C   0  0  0  0  0  0  0  0  0  0  0  0
   23.7788  -37.6306  -11.8625 C   0  0  0  0  0  0  0  0  0  0  0  0
   24.7716  -36.7432  -11.7699 N   0  0  0  0  0  0  0  0  0  0  0  0
   25.2209  -36.1389  -12.8748 C   0  0  0  0  0  0  0  0  0  0  0  0
   24.6827  -36.4084  -14.1328 C   0  0  0  0  0  0  0  0  0  0  0  0
   23.6480  -37.3254  -14.2568 C   0  0  0  0  0  0  0  0  0  0  0  0
   21.1520  -36.5939  -12.2608 H   0  0  0  0  0  0  0  0  0  0  0  0
   18.9153  -36.2462  -11.5022 H   0  0  0  0  0  0  0  0  0  0  0  0
   18.0547  -40.2537  -12.2012 H   0  0  0  0  0  0  0  0  0  0  0  0
   20.2947  -40.5972  -12.9588 H   0  0  0  0  0  0  0  0  0  0  0  0
   16.4838  -36.5428  -12.7070 H   0  0  0  0  0  0  0  0  0  0  0  0
   14.2442  -37.6045  -11.2190 H   0  0  0  0  0  0  0  0  0  0  0  0
   15.3929  -35.9193   -9.6455 H   0  0  0  0  0  0  0  0  0  0  0  0
   13.8097  -35.6388   -9.9314 H   0  0  0  0  0  0  0  0  0  0  0  0
   14.5500  -34.0160  -13.0330 H   0  0  0  0  0  0  0  0  0  0  0  0
   13.2682  -34.1456  -12.0295 H   0  0  0  0  0  0  0  0  0  0  0  0
   13.0726  -36.2932  -12.6802 H   0  0  0  0  0  0  0  0  0  0  0  0
   14.4874  -36.2199  -13.4924 H   0  0  0  0  0  0  0  0  0  0  0  0
   14.8363  -33.5646   -9.3109 H   0  0  0  0  0  0  0  0  0  0  0  0
   13.9806  -32.8794  -10.5212 H   0  0  0  0  0  0  0  0  0  0  0  0
   16.8518  -32.8926  -10.8031 H   0  0  0  0  0  0  0  0  0  0  0  0
   14.7595  -31.0423  -11.6123 H   0  0  0  0  0  0  0  0  0  0  0  0
   15.8583  -31.7546  -12.5879 H   0  0  0  0  0  0  0  0  0  0  0  0
   16.2337  -29.3266  -11.5908 H   0  0  0  0  0  0  0  0  0  0  0  0
   17.4819  -30.2882  -12.0195 H   0  0  0  0  0  0  0  0  0  0  0  0
   16.9053  -29.4654   -9.4708 H   0  0  0  0  0  0  0  0  0  0  0  0
   18.0750  -30.5269   -9.8850 H   0  0  0  0  0  0  0  0  0  0  0  0
   16.7711  -31.9437   -8.6565 H   0  0  0  0  0  0  0  0  0  0  0  0
   15.4021  -31.1236   -9.0032 H   0  0  0  0  0  0  0  0  0  0  0  0
   23.4488  -38.0864  -11.0359 H   0  0  0  0  0  0  0  0  0  0  0  0
   25.9642  -35.4745  -12.7968 H   0  0  0  0  0  0  0  0  0  0  0  0
   25.0407  -35.9429  -14.9422 H   0  0  0  0  0  0  0  0  0  0  0  0
   23.2461  -37.5401  -15.1470 H   0  0  0  0  0  0  0  0  0  0  0  0
   16.0163  -34.5606  -11.4142 H   0  0  0  0  0  0  0  0  0  0  0  0
  1  2  2  0  0  0  0
  1  6  1  0  0  0  0
  1 28  1  0  0  0  0
  2  3  1  0  0  0  0
  2 29  1  0  0  0  0
  3  4  2  0  0  0  0
  3  7  1  0  0  0  0
  4  5  1  0  0  0  0
  4 30  1  0  0  0  0
  5  6  2  0  0  0  0
  5 31  1  0  0  0  0
  6 21  1  0  0  0  0
  7  8  1  0  0  0  0
  7  9  2  0  0  0  0
  8 10  1  0  0  0  0
  8 32  1  0  0  0  0
 10 11  1  0  0  0  0
 10 14  1  0  0  0  0
 10 33  1  0  0  0  0
 11 12  1  0  0  0  0
 11 34  1  0  0  0  0
 11 35  1  0  0  0  0
 12 13  1  0  0  0  0
 12 15  1  0  0  0  0
 12 55  1  0  0  0  0
 13 14  1  0  0  0  0
 13 36  1  0  0  0  0
 13 37  1  0  0  0  0
 14 38  1  0  0  0  0
 14 39  1  0  0  0  0
 15 16  1  0  0  0  0
 15 40  1  0  0  0  0
 15 41  1  0  0  0  0
 16 17  1  0  0  0  0
 16 20  1  0  0  0  0
 16 42  1  0  0  0  0
 17 18  1  0  0  0  0
 17 43  1  0  0  0  0
 17 44  1  0  0  0  0
 18 19  1  0  0  0  0
 18 45  1  0  0  0  0
 18 46  1  0  0  0  0
 19 20  1  0  0  0  0
 19 47  1  0  0  0  0
 19 48  1  0  0  0  0
 20 49  1  0  0  0  0
 20 50  1  0  0  0  0
 21 22  1  0  0  0  0
 22 23  2  0  0  0  0
 22 27  1  0  0  0  0
 23 24  1  0  0  0  0
 23 51  1  0  0  0  0
 24 25  2  0  0  0  0
 25 26  1  0  0  0  0
 25 52  1  0  0  0  0
 26 27  2  0  0  0  0
 26 53  1  0  0  0  0
 27 54  1  0  0  0  0
M  CHG  1  12   1
M  END
> <BIOSOLVEIT.HYDE_ESTIMATED_AFFINITY_LOWER_BOUNDARY [nM]>
7895.706878

> <BIOSOLVEIT.HYDE_ESTIMATED_AFFINITY_UPPER_BOUNDARY [nM]>
784485.161393

> <BIOSOLVEIT.HYDE_LIGAND_EFFICIENCY range: ++, +, 0, -, -->
-

> <BIOSOLVEIT.HYDE_LIGAND_LIPOPHILIC_EFFICIENCY range: ++, +, 0, -, -->
--

> <BIOSOLVEIT.INTER_CLASH range: red, yellow, green>
green

> <BIOSOLVEIT.INTRA_CLASH range: red, yellow, green>
green

> <BIOSOLVEIT.LOGP>
2.4511

> <BIOSOLVEIT.MOLECULAR WEIGHT>
366.482

> <BIOSOLVEIT.MOLECULE_CHECKSUM>
LTIzLjQyNTc7MC44Njc2Mg==

> <BIOSOLVEIT.TORSION_QUALITY range: red, yellow, green, not rotatable>
yellow

> <BIOSOLVEIT.TPSA>
55.66

$$$$
PV-001799429813.****
b8Hydescor01032215413D 1   1.00000     0.00000     0
Hydescorer 1.1.2 b8048283
 55 58  0  0  0  0            999 V2000
   20.0457  -37.6274  -11.8861 C   0  0  0  0  0  0  0  0  0  0  0  0
   18.7336  -37.2153  -12.0805 C   0  0  0  0  0  0  0  0  0  0  0  0
   17.7146  -38.1483  -12.3376 C   0  0  0  0  0  0  0  0  0  0  0  0
   18.0504  -39.5154  -12.4010 C   0  0  0  0  0  0  0  0  0  0  0  0
   19.3628  -39.9317  -12.2067 C   0  0  0  0  0  0  0  0  0  0  0  0
   20.3527  -38.9862  -11.9578 C   0  0  0  0  0  0  0  0  0  0  0  0
   16.3386  -37.6798  -12.5365 C   0  0  0  0  0  0  0  0  0  0  0  0
   15.8479  -36.6408  -11.7840 N   0  0  0  0  0  0  0  0  0  0  0  0
   15.5749  -38.1685  -13.3576 O   0  0  0  0  0  0  0  0  0  0  0  0
   14.4637  -36.1347  -11.9513 C   0  0  1  0  0  0  0  0  0  0  0  0
   14.1833  -34.9647  -10.9885 C   0  0  0  0  0  0  0  0  0  0  0  0
   14.9980  -33.9163  -11.6068 N   0  3  1  0  0  0  0  0  0  0  0  0
   14.6296  -33.9481  -13.0287 C   0  0  0  0  0  0  0  0  0  0  0  0
   14.4057  -35.4456  -13.3194 C   0  0  0  0  0  0  0  0  0  0  0  0
   14.6747  -32.6111  -11.0010 C   0  0  0  0  0  0  0  0  0  0  0  0
   16.0013  -31.8268  -10.9507 C   0  0  0  0  0  0  0  0  0  0  0  0
   15.9264  -30.4893  -11.6985 C   0  0  0  0  0  0  0  0  0  0  0  0
   17.0331  -29.6435  -11.0614 C   0  0  0  0  0  0  0  0  0  0  0  0
   17.3020  -30.2576   -9.6836 C   0  0  0  0  0  0  0  0  0  0  0  0
   16.2660  -31.3702   -9.5148 C   0  0  0  0  0  0  0  0  0  0  0  0
   21.6383  -39.4355  -11.7683 O   0  0  0  0  0  0  0  0  0  0  0  0
   22.6059  -39.4734  -12.7530 C   0  0  0  0  0  0  0  0  0  0  0  0
   23.4290  -38.3609  -12.9215 C   0  0  0  0  0  0  0  0  0  0  0  0
   24.3806  -38.3410  -13.8574 N   0  0  0  0  0  0  0  0  0  0  0  0
   24.5555  -39.4091  -14.6424 C   0  0  0  0  0  0  0  0  0  0  0  0
   23.7704  -40.5545  -14.5141 C   0  0  0  0  0  0  0  0  0  0  0  0
   22.7723  -40.6006  -13.5503 C   0  0  0  0  0  0  0  0  0  0  0  0
   20.7630  -36.9568  -11.6968 H   0  0  0  0  0  0  0  0  0  0  0  0
   18.5111  -36.2413  -12.0369 H   0  0  0  0  0  0  0  0  0  0  0  0
   17.3384  -40.1923  -12.5875 H   0  0  0  0  0  0  0  0  0  0  0  0
   19.5936  -40.9039  -12.2455 H   0  0  0  0  0  0  0  0  0  0  0  0
   16.4416  -36.2126  -11.1027 H   0  0  0  0  0  0  0  0  0  0  0  0
   13.7836  -36.8630  -11.8673 H   0  0  0  0  0  0  0  0  0  0  0  0
   14.4878  -35.1697  -10.0584 H   0  0  0  0  0  0  0  0  0  0  0  0
   13.2137  -34.7205  -10.9755 H   0  0  0  0  0  0  0  0  0  0  0  0
   15.3674  -33.5819  -13.5958 H   0  0  0  0  0  0  0  0  0  0  0  0
   13.7930  -33.4249  -13.1915 H   0  0  0  0  0  0  0  0  0  0  0  0
   13.5133  -35.5900  -13.7470 H   0  0  0  0  0  0  0  0  0  0  0  0
   15.1239  -35.7973  -13.9197 H   0  0  0  0  0  0  0  0  0  0  0  0
   14.3100  -32.7369  -10.0784 H   0  0  0  0  0  0  0  0  0  0  0  0
   14.0042  -32.1245  -11.5610 H   0  0  0  0  0  0  0  0  0  0  0  0
   16.7579  -32.3842  -11.2925 H   0  0  0  0  0  0  0  0  0  0  0  0
   15.0325  -30.0599  -11.5696 H   0  0  0  0  0  0  0  0  0  0  0  0
   16.0962  -30.6187  -12.6755 H   0  0  0  0  0  0  0  0  0  0  0  0
   16.7322  -28.6948  -10.9653 H   0  0  0  0  0  0  0  0  0  0  0  0
   17.8602  -29.6757  -11.6225 H   0  0  0  0  0  0  0  0  0  0  0  0
   17.1926  -29.5681   -8.9676 H   0  0  0  0  0  0  0  0  0  0  0  0
   18.2274  -30.6344   -9.6448 H   0  0  0  0  0  0  0  0  0  0  0  0
   16.6319  -32.1193   -8.9625 H   0  0  0  0  0  0  0  0  0  0  0  0
   15.4308  -31.0204   -9.0906 H   0  0  0  0  0  0  0  0  0  0  0  0
   23.3043  -37.5636  -12.3309 H   0  0  0  0  0  0  0  0  0  0  0  0
   25.2698  -39.3860  -15.3418 H   0  0  0  0  0  0  0  0  0  0  0  0
   23.9257  -41.3394  -15.1138 H   0  0  0  0  0  0  0  0  0  0  0  0
   22.1972  -41.4105  -13.4343 H   0  0  0  0  0  0  0  0  0  0  0  0
   15.9706  -34.1202  -11.4949 H   0  0  0  0  0  0  0  0  0  0  0  0
  1  2  2  0  0  0  0
  1  6  1  0  0  0  0
  1 28  1  0  0  0  0
  2  3  1  0  0  0  0
  2 29  1  0  0  0  0
  3  4  2  0  0  0  0
  3  7  1  0  0  0  0
  4  5  1  0  0  0  0
  4 30  1  0  0  0  0
  5  6  2  0  0  0  0
  5 31  1  0  0  0  0
  6 21  1  0  0  0  0
  7  8  1  0  0  0  0
  7  9  2  0  0  0  0
  8 10  1  0  0  0  0
  8 32  1  0  0  0  0
 10 11  1  0  0  0  0
 10 14  1  0  0  0  0
 10 33  1  0  0  0  0
 11 12  1  0  0  0  0
 11 34  1  0  0  0  0
 11 35  1  0  0  0  0
 12 13  1  0  0  0  0
 12 15  1  0  0  0  0
 12 55  1  0  0  0  0
 13 14  1  0  0  0  0
 13 36  1  0  0  0  0
 13 37  1  0  0  0  0
 14 38  1  0  0  0  0
 14 39  1  0  0  0  0
 15 16  1  0  0  0  0
 15 40  1  0  0  0  0
 15 41  1  0  0  0  0
 16 17  1  0  0  0  0
 16 20  1  0  0  0  0
 16 42  1  0  0  0  0
 17 18  1  0  0  0  0
 17 43  1  0  0  0  0
 17 44  1  0  0  0  0
 18 19  1  0  0  0  0
 18 45  1  0  0  0  0
 18 46  1  0  0  0  0
 19 20  1  0  0  0  0
 19 47  1  0  0  0  0
 19 48  1  0  0  0  0
 20 49  1  0  0  0  0
 20 50  1  0  0  0  0
 21 22  1  0  0  0  0
 22 23  2  0  0  0  0
 22 27  1  0  0  0  0
 23 24  1  0  0  0  0
 23 51  1  0  0  0  0
 24 25  2  0  0  0  0
 25 26  1  0  0  0  0
 25 52  1  0  0  0  0
 26 27  2  0  0  0  0
 26 53  1  0  0  0  0
 27 54  1  0  0  0  0
M  CHG  1  12   1
M  END
> <BIOSOLVEIT.HYDE_ESTIMATED_AFFINITY_LOWER_BOUNDARY [nM]>
553404.817244

> <BIOSOLVEIT.HYDE_ESTIMATED_AFFINITY_UPPER_BOUNDARY [nM]>
54984040.581425

> <BIOSOLVEIT.HYDE_LIGAND_EFFICIENCY range: ++, +, 0, -, -->
--

> <BIOSOLVEIT.HYDE_LIGAND_LIPOPHILIC_EFFICIENCY range: ++, +, 0, -, -->
--

> <BIOSOLVEIT.INTER_CLASH range: red, yellow, green>
green

> <BIOSOLVEIT.INTRA_CLASH range: red, yellow, green>
green

> <BIOSOLVEIT.LOGP>
2.4511

> <BIOSOLVEIT.MOLECULAR WEIGHT>
366.482

> <BIOSOLVEIT.MOLECULE_CHECKSUM>
LTEyLjg5MDc7MC40Nzc0MzU=

> <BIOSOLVEIT.TORSION_QUALITY range: red, yellow, green, not rotatable>
yellow

> <BIOSOLVEIT.TPSA>
55.66

$$$$
PV-001799429813.****
b8Hydescor01032215413D 1   1.00000     0.00000     0
Hydescorer 1.1.2 b8048283
 55 58  0  0  0  0            999 V2000
   14.7445  -34.8856  -10.4480 C   0  0  0  0  0  0  0  0  0  0  0  0
   14.6880  -36.1107  -11.1000 C   0  0  0  0  0  0  0  0  0  0  0  0
   14.3641  -36.1874  -12.4655 C   0  0  0  0  0  0  0  0  0  0  0  0
   14.0901  -34.9940  -13.1629 C   0  0  0  0  0  0  0  0  0  0  0  0
   14.1460  -33.7657  -12.5135 C   0  0  0  0  0  0  0  0  0  0  0  0
   14.4654  -33.7191  -11.1602 C   0  0  0  0  0  0  0  0  0  0  0  0
   14.3148  -37.4971  -13.1244 C   0  0  0  0  0  0  0  0  0  0  0  0
   13.8564  -38.5967  -12.4408 N   0  0  0  0  0  0  0  0  0  0  0  0
   14.6647  -37.6799  -14.2822 O   0  0  0  0  0  0  0  0  0  0  0  0
   13.7893  -39.9397  -13.0671 C   0  0  1  0  0  0  0  0  0  0  0  0
   15.1974  -40.4532  -13.4248 C   0  0  0  0  0  0  0  0  0  0  0  0
   15.7202  -40.7361  -12.0862 N   0  3  1  0  0  0  0  0  0  0  0  0
   14.6699  -41.5316  -11.4363 C   0  0  0  0  0  0  0  0  0  0  0  0
   13.3591  -40.9199  -11.9699 C   0  0  0  0  0  0  0  0  0  0  0  0
   16.9779  -41.4988  -12.1930 C   0  0  0  0  0  0  0  0  0  0  0  0
   17.9192  -40.6443  -13.0655 C   0  0  0  0  0  0  0  0  0  0  0  0
   18.8754  -39.7803  -12.2329 C   0  0  0  0  0  0  0  0  0  0  0  0
   20.0490  -39.5063  -13.1781 C   0  0  0  0  0  0  0  0  0  0  0  0
   20.0136  -40.6132  -14.2369 C   0  0  0  0  0  0  0  0  0  0  0  0
   18.8913  -41.5610  -13.8104 C   0  0  0  0  0  0  0  0  0  0  0  0
   14.5133  -32.4866  -10.5526 O   0  0  0  0  0  0  0  0  0  0  0  0
   15.5806  -31.6145  -10.6377 C   0  0  0  0  0  0  0  0  0  0  0  0
   15.9556  -31.1408  -11.8940 C   0  0  0  0  0  0  0  0  0  0  0  0
   16.9795  -30.2963  -12.0367 N   0  0  0  0  0  0  0  0  0  0  0  0
   17.6535  -29.8890  -10.9562 C   0  0  0  0  0  0  0  0  0  0  0  0
   17.3183  -30.3199   -9.6729 C   0  0  0  0  0  0  0  0  0  0  0  0
   16.2592  -31.1999   -9.4967 C   0  0  0  0  0  0  0  0  0  0  0  0
   14.9826  -34.8402   -9.4778 H   0  0  0  0  0  0  0  0  0  0  0  0
   14.8805  -36.9496  -10.5909 H   0  0  0  0  0  0  0  0  0  0  0  0
   13.8533  -35.0309  -14.1338 H   0  0  0  0  0  0  0  0  0  0  0  0
   13.9579  -32.9217  -13.0158 H   0  0  0  0  0  0  0  0  0  0  0  0
   13.5589  -38.4887  -11.4921 H   0  0  0  0  0  0  0  0  0  0  0  0
   13.1707  -39.9584  -13.8526 H   0  0  0  0  0  0  0  0  0  0  0  0
   15.7381  -39.7546  -13.8932 H   0  0  0  0  0  0  0  0  0  0  0  0
   15.1582  -41.2782  -13.9887 H   0  0  0  0  0  0  0  0  0  0  0  0
   14.7233  -41.4464  -10.4414 H   0  0  0  0  0  0  0  0  0  0  0  0
   14.7433  -42.4953  -11.6928 H   0  0  0  0  0  0  0  0  0  0  0  0
   12.7684  -41.6325  -12.3484 H   0  0  0  0  0  0  0  0  0  0  0  0
   12.8744  -40.4382  -11.2398 H   0  0  0  0  0  0  0  0  0  0  0  0
   16.8115  -42.3847  -12.6260 H   0  0  0  0  0  0  0  0  0  0  0  0
   17.3767  -41.6402  -11.2870 H   0  0  0  0  0  0  0  0  0  0  0  0
   17.3976  -40.0816  -13.7069 H   0  0  0  0  0  0  0  0  0  0  0  0
   19.1825  -40.2737  -11.4191 H   0  0  0  0  0  0  0  0  0  0  0  0
   18.4340  -38.9261  -11.9580 H   0  0  0  0  0  0  0  0  0  0  0  0
   20.9129  -39.5353  -12.6753 H   0  0  0  0  0  0  0  0  0  0  0  0
   19.9445  -38.6104  -13.6098 H   0  0  0  0  0  0  0  0  0  0  0  0
   20.8878  -41.0980  -14.2634 H   0  0  0  0  0  0  0  0  0  0  0  0
   19.8193  -40.2266  -15.1385 H   0  0  0  0  0  0  0  0  0  0  0  0
   18.4521  -41.9772  -14.6066 H   0  0  0  0  0  0  0  0  0  0  0  0
   19.2389  -42.2795  -13.2080 H   0  0  0  0  0  0  0  0  0  0  0  0
   15.4485  -31.4389  -12.7027 H   0  0  0  0  0  0  0  0  0  0  0  0
   18.4200  -29.2572  -11.0715 H   0  0  0  0  0  0  0  0  0  0  0  0
   17.8389  -29.9963   -8.8827 H   0  0  0  0  0  0  0  0  0  0  0  0
   15.9953  -31.5221   -8.5876 H   0  0  0  0  0  0  0  0  0  0  0  0
   15.8716  -39.8843  -11.5848 H   0  0  0  0  0  0  0  0  0  0  0  0
  1  2  2  0  0  0  0
  1  6  1  0  0  0  0
  1 28  1  0  0  0  0
  2  3  1  0  0  0  0
  2 29  1  0  0  0  0
  3  4  2  0  0  0  0
  3  7  1  0  0  0  0
  4  5  1  0  0  0  0
  4 30  1  0  0  0  0
  5  6  2  0  0  0  0
  5 31  1  0  0  0  0
  6 21  1  0  0  0  0
  7  8  1  0  0  0  0
  7  9  2  0  0  0  0
  8 10  1  0  0  0  0
  8 32  1  0  0  0  0
 10 11  1  0  0  0  0
 10 14  1  0  0  0  0
 10 33  1  0  0  0  0
 11 12  1  0  0  0  0
 11 34  1  0  0  0  0
 11 35  1  0  0  0  0
 12 13  1  0  0  0  0
 12 15  1  0  0  0  0
 12 55  1  0  0  0  0
 13 14  1  0  0  0  0
 13 36  1  0  0  0  0
 13 37  1  0  0  0  0
 14 38  1  0  0  0  0
 14 39  1  0  0  0  0
 15 16  1  0  0  0  0
 15 40  1  0  0  0  0
 15 41  1  0  0  0  0
 16 17  1  0  0  0  0
 16 20  1  0  0  0  0
 16 42  1  0  0  0  0
 17 18  1  0  0  0  0
 17 43  1  0  0  0  0
 17 44  1  0  0  0  0
 18 19  1  0  0  0  0
 18 45  1  0  0  0  0
 18 46  1  0  0  0  0
 19 20  1  0  0  0  0
 19 47  1  0  0  0  0
 19 48  1  0  0  0  0
 20 49  1  0  0  0  0
 20 50  1  0  0  0  0
 21 22  1  0  0  0  0
 22 23  2  0  0  0  0
 22 27  1  0  0  0  0
 23 24  1  0  0  0  0
 23 51  1  0  0  0  0
 24 25  2  0  0  0  0
 25 26  1  0  0  0  0
 25 52  1  0  0  0  0
 26 27  2  0  0  0  0
 26 53  1  0  0  0  0
 27 54  1  0  0  0  0
M  CHG  1  12   1
M  END
> <BIOSOLVEIT.HYDE_ESTIMATED_AFFINITY_LOWER_BOUNDARY [nM]>
13124404.106602

> <BIOSOLVEIT.HYDE_ESTIMATED_AFFINITY_UPPER_BOUNDARY [nM]>
1303987145.609169

> <BIOSOLVEIT.HYDE_LIGAND_EFFICIENCY range: ++, +, 0, -, -->
--

> <BIOSOLVEIT.HYDE_LIGAND_LIPOPHILIC_EFFICIENCY range: ++, +, 0, -, -->
--

> <BIOSOLVEIT.INTER_CLASH range: red, yellow, green>
green

> <BIOSOLVEIT.INTRA_CLASH range: red, yellow, green>
green

> <BIOSOLVEIT.LOGP>
2.4511

> <BIOSOLVEIT.MOLECULAR WEIGHT>
366.482

> <BIOSOLVEIT.MOLECULE_CHECKSUM>
LTUuMDQyMDI7MC4xODY3NDE=

> <BIOSOLVEIT.TORSION_QUALITY range: red, yellow, green, not rotatable>
green

> <BIOSOLVEIT.TPSA>
55.66

$$$$
PV-000117881128.****
b8Hydescor01032215413D 1   1.00000     0.00000     0
Hydescorer 1.1.2 b8048283
 45 47  0  0  0  0            999 V2000
   13.2905  -38.0423  -13.9293 C   0  0  0  0  0  0  0  0  0  0  0  0
   14.0130  -37.6409  -12.8115 C   0  0  0  0  0  0  0  0  0  0  0  0
   14.2999  -38.5462  -11.7788 C   0  0  0  0  0  0  0  0  0  0  0  0
   13.8289  -39.8658  -11.8941 C   0  0  0  0  0  0  0  0  0  0  0  0
   13.1069  -40.2640  -13.0152 C   0  0  0  0  0  0  0  0  0  0  0  0
   12.8387  -39.3537  -14.0325 C   0  0  0  0  0  0  0  0  0  0  0  0
   15.0724  -38.0991  -10.6131 C   0  0  0  0  0  0  0  0  0  0  0  0
   15.0155  -36.7848  -10.2185 N   0  0  0  0  0  0  0  0  0  0  0  0
   15.7803  -38.8418   -9.9479 O   0  0  0  0  0  0  0  0  0  0  0  0
   15.7745  -36.2788   -9.0493 C   0  0  1  0  0  0  0  0  0  0  0  0
   17.2217  -36.8089   -9.0576 C   0  0  0  0  0  0  0  0  0  0  0  0
   17.7681  -36.0530  -10.1877 N   0  3  1  0  0  0  0  0  0  0  0  0
   17.3763  -34.6610   -9.9322 C   0  0  0  0  0  0  0  0  0  0  0  0
   15.9863  -34.7783   -9.2763 C   0  0  0  0  0  0  0  0  0  0  0  0
   19.2337  -36.2001  -10.2235 C   0  0  0  0  0  0  0  0  0  0  0  0
   19.5518  -36.9722  -11.5207 C   0  0  0  0  0  0  0  0  0  0  0  0
   18.7335  -38.2625  -11.6576 C   0  0  0  0  0  0  0  0  0  0  0  0
   18.7321  -38.5432  -13.1617 C   0  0  0  0  0  0  0  0  0  0  0  0
   19.0089  -37.2003  -13.8474 C   0  0  0  0  0  0  0  0  0  0  0  0
   19.0671  -36.1645  -12.7254 C   0  0  0  0  0  0  0  0  0  0  0  0
   13.0956  -37.3877  -14.6596 H   0  0  0  0  0  0  0  0  0  0  0  0
   14.3320  -36.6957  -12.7427 H   0  0  0  0  0  0  0  0  0  0  0  0
   14.0142  -40.5239  -11.1642 H   0  0  0  0  0  0  0  0  0  0  0  0
   12.7802  -41.2063  -13.0897 H   0  0  0  0  0  0  0  0  0  0  0  0
   12.3210  -39.6423  -14.8380 H   0  0  0  0  0  0  0  0  0  0  0  0
   14.4437  -36.1485  -10.7363 H   0  0  0  0  0  0  0  0  0  0  0  0
   15.3078  -36.4679   -8.1854 H   0  0  0  0  0  0  0  0  0  0  0  0
   17.2540  -37.7949   -9.2212 H   0  0  0  0  0  0  0  0  0  0  0  0
   17.6988  -36.5967   -8.2048 H   0  0  0  0  0  0  0  0  0  0  0  0
   17.3236  -34.1441  -10.7867 H   0  0  0  0  0  0  0  0  0  0  0  0
   18.0248  -34.2172   -9.3137 H   0  0  0  0  0  0  0  0  0  0  0  0
   15.9665  -34.2858   -8.4062 H   0  0  0  0  0  0  0  0  0  0  0  0
   15.2804  -34.4122   -9.8826 H   0  0  0  0  0  0  0  0  0  0  0  0
   19.5509  -36.7142   -9.4265 H   0  0  0  0  0  0  0  0  0  0  0  0
   19.6729  -35.3019  -10.2372 H   0  0  0  0  0  0  0  0  0  0  0  0
   20.5310  -37.1627  -11.5905 H   0  0  0  0  0  0  0  0  0  0  0  0
   17.8015  -38.1296  -11.3201 H   0  0  0  0  0  0  0  0  0  0  0  0
   19.1657  -39.0122  -11.1566 H   0  0  0  0  0  0  0  0  0  0  0  0
   17.8431  -38.9014  -13.4468 H   0  0  0  0  0  0  0  0  0  0  0  0
   19.4469  -39.2037  -13.3918 H   0  0  0  0  0  0  0  0  0  0  0  0
   18.2740  -36.9785  -14.4883 H   0  0  0  0  0  0  0  0  0  0  0  0
   19.8800  -37.2324  -14.3372 H   0  0  0  0  0  0  0  0  0  0  0  0
   19.7109  -35.4324  -12.9476 H   0  0  0  0  0  0  0  0  0  0  0  0
   18.1633  -35.7727  -12.5531 H   0  0  0  0  0  0  0  0  0  0  0  0
   17.3667  -36.3739  -11.0457 H   0  0  0  0  0  0  0  0  0  0  0  0
  1  2  2  0  0  0  0
  1  6  1  0  0  0  0
  1 21  1  0  0  0  0
  2  3  1  0  0  0  0
  2 22  1  0  0  0  0
  3  4  2  0  0  0  0
  3  7  1  0  0  0  0
  4  5  1  0  0  0  0
  4 23  1  0  0  0  0
  5  6  2  0  0  0  0
  5 24  1  0  0  0  0
  6 25  1  0  0  0  0
  7  8  1  0  0  0  0
  7  9  2  0  0  0  0
  8 10  1  0  0  0  0
  8 26  1  0  0  0  0
 10 11  1  0  0  0  0
 10 14  1  0  0  0  0
 10 27  1  0  0  0  0
 11 12  1  0  0  0  0
 11 28  1  0  0  0  0
 11 29  1  0  0  0  0
 12 13  1  0  0  0  0
 12 15  1  0  0  0  0
 12 45  1  0  0  0  0
 13 14  1  0  0  0  0
 13 30  1  0  0  0  0
 13 31  1  0  0  0  0
 14 32  1  0  0  0  0
 14 33  1  0  0  0  0
 15 16  1  0  0  0  0
 15 34  1  0  0  0  0
 15 35  1  0  0  0  0
 16 17  1  0  0  0  0
 16 20  1  0  0  0  0
 16 36  1  0  0  0  0
 17 18  1  0  0  0  0
 17 37  1  0  0  0  0
 17 38  1  0  0  0  0
 18 19  1  0  0  0  0
 18 39  1  0  0  0  0
 18 40  1  0  0  0  0
 19 20  1  0  0  0  0
 19 41  1  0  0  0  0
 19 42  1  0  0  0  0
 20 43  1  0  0  0  0
 20 44  1  0  0  0  0
M  CHG  1  12   1
M  END
> <BIOSOLVEIT.HYDE_ESTIMATED_AFFINITY_LOWER_BOUNDARY [nM]>
12123052.724826

> <BIOSOLVEIT.HYDE_ESTIMATED_AFFINITY_UPPER_BOUNDARY [nM]>
1204496965.371747

> <BIOSOLVEIT.HYDE_LIGAND_EFFICIENCY range: ++, +, 0, -, -->
--

> <BIOSOLVEIT.HYDE_LIGAND_LIPOPHILIC_EFFICIENCY range: ++, +, 0, -, -->
--

> <BIOSOLVEIT.INTER_CLASH range: red, yellow, green>
green

> <BIOSOLVEIT.INTRA_CLASH range: red, yellow, green>
red

> <BIOSOLVEIT.LOGP>
1.2638

> <BIOSOLVEIT.MOLECULAR WEIGHT>
273.398

> <BIOSOLVEIT.MOLECULE_CHECKSUM>
LTUuMjM4NzY7MC4yNjE5Mzg=

> <BIOSOLVEIT.TORSION_QUALITY range: red, yellow, green, not rotatable>
yellow

> <BIOSOLVEIT.TPSA>
33.54

$$$$
PV-000117881128.****
b8Hydescor01032215413D 1   1.00000     0.00000     0
Hydescorer 1.1.2 b8048283
 45 47  0  0  0  0            999 V2000
   19.5345  -36.5698  -14.9469 C   0  0  0  0  0  0  0  0  0  0  0  0
   19.1594  -36.4380  -13.6149 C   0  0  0  0  0  0  0  0  0  0  0  0
   18.6996  -37.5448  -12.8855 C   0  0  0  0  0  0  0  0  0  0  0  0
   18.6143  -38.7881  -13.5364 C   0  0  0  0  0  0  0  0  0  0  0  0
   18.9918  -38.9162  -14.8697 C   0  0  0  0  0  0  0  0  0  0  0  0
   19.4525  -37.8083  -15.5744 C   0  0  0  0  0  0  0  0  0  0  0  0
   18.3180  -37.3807  -11.4773 C   0  0  0  0  0  0  0  0  0  0  0  0
   17.1363  -36.7580  -11.1573 N   0  0  0  0  0  0  0  0  0  0  0  0
   19.0001  -37.7772  -10.5430 O   0  0  0  0  0  0  0  0  0  0  0  0
   16.7015  -36.5654   -9.7528 C   0  0  1  0  0  0  0  0  0  0  0  0
   16.6856  -35.0703   -9.3786 C   0  0  0  0  0  0  0  0  0  0  0  0
   15.5380  -34.6175  -10.1693 N   0  3  1  0  0  0  0  0  0  0  0  0
   14.4706  -35.5791   -9.8653 C   0  0  0  0  0  0  0  0  0  0  0  0
   15.2118  -36.9204   -9.6992 C   0  0  0  0  0  0  0  0  0  0  0  0
   15.1614  -33.2518   -9.7639 C   0  0  0  0  0  0  0  0  0  0  0  0
   16.2174  -32.3167  -10.3888 C   0  0  0  0  0  0  0  0  0  0  0  0
   15.6684  -31.5116  -11.5735 C   0  0  0  0  0  0  0  0  0  0  0  0
   16.5954  -30.2972  -11.6583 C   0  0  0  0  0  0  0  0  0  0  0  0
   17.2232  -30.1409  -10.2685 C   0  0  0  0  0  0  0  0  0  0  0  0
   16.5692  -31.2098   -9.3939 C   0  0  0  0  0  0  0  0  0  0  0  0
   19.8635  -35.7735  -15.4544 H   0  0  0  0  0  0  0  0  0  0  0  0
   19.2181  -35.5437  -13.1713 H   0  0  0  0  0  0  0  0  0  0  0  0
   18.2795  -39.5871  -13.0370 H   0  0  0  0  0  0  0  0  0  0  0  0
   18.9318  -39.8059  -15.3221 H   0  0  0  0  0  0  0  0  0  0  0  0
   19.7247  -37.9026  -16.5320 H   0  0  0  0  0  0  0  0  0  0  0  0
   16.5503  -36.4237  -11.8954 H   0  0  0  0  0  0  0  0  0  0  0  0
   17.2428  -37.1095   -9.1117 H   0  0  0  0  0  0  0  0  0  0  0  0
   17.5298  -34.6105   -9.6542 H   0  0  0  0  0  0  0  0  0  0  0  0
   16.5369  -34.9352   -8.3990 H   0  0  0  0  0  0  0  0  0  0  0  0
   13.8118  -35.6277  -10.6162 H   0  0  0  0  0  0  0  0  0  0  0  0
   13.9962  -35.3283   -9.0215 H   0  0  0  0  0  0  0  0  0  0  0  0
   14.9830  -37.3412   -8.8214 H   0  0  0  0  0  0  0  0  0  0  0  0
   14.9737  -37.5470  -10.4413 H   0  0  0  0  0  0  0  0  0  0  0  0
   15.1711  -33.1701   -8.7673 H   0  0  0  0  0  0  0  0  0  0  0  0
   14.2501  -33.0260  -10.1081 H   0  0  0  0  0  0  0  0  0  0  0  0
   17.0341  -32.8291  -10.6545 H   0  0  0  0  0  0  0  0  0  0  0  0
   14.7250  -31.2272  -11.4030 H   0  0  0  0  0  0  0  0  0  0  0  0
   15.7077  -32.0482  -12.4164 H   0  0  0  0  0  0  0  0  0  0  0  0
   16.0733  -29.4784  -11.8970 H   0  0  0  0  0  0  0  0  0  0  0  0
   17.3063  -30.4510  -12.3445 H   0  0  0  0  0  0  0  0  0  0  0  0
   17.0364  -29.2292   -9.9025 H   0  0  0  0  0  0  0  0  0  0  0  0
   18.2116  -30.2855  -10.3145 H   0  0  0  0  0  0  0  0  0  0  0  0
   17.2066  -31.5427   -8.6991 H   0  0  0  0  0  0  0  0  0  0  0  0
   15.7471  -30.8542   -8.9491 H   0  0  0  0  0  0  0  0  0  0  0  0
   15.7582  -34.6411  -11.1445 H   0  0  0  0  0  0  0  0  0  0  0  0
  1  2  2  0  0  0  0
  1  6  1  0  0  0  0
  1 21  1  0  0  0  0
  2  3  1  0  0  0  0
  2 22  1  0  0  0  0
  3  4  2  0  0  0  0
  3  7  1  0  0  0  0
  4  5  1  0  0  0  0
  4 23  1  0  0  0  0
  5  6  2  0  0  0  0
  5 24  1  0  0  0  0
  6 25  1  0  0  0  0
  7  8  1  0  0  0  0
  7  9  2  0  0  0  0
  8 10  1  0  0  0  0
  8 26  1  0  0  0  0
 10 11  1  0  0  0  0
 10 14  1  0  0  0  0
 10 27  1  0  0  0  0
 11 12  1  0  0  0  0
 11 28  1  0  0  0  0
 11 29  1  0  0  0  0
 12 13  1  0  0  0  0
 12 15  1  0  0  0  0
 12 45  1  0  0  0  0
 13 14  1  0  0  0  0
 13 30  1  0  0  0  0
 13 31  1  0  0  0  0
 14 32  1  0  0  0  0
 14 33  1  0  0  0  0
 15 16  1  0  0  0  0
 15 34  1  0  0  0  0
 15 35  1  0  0  0  0
 16 17  1  0  0  0  0
 16 20  1  0  0  0  0
 16 36  1  0  0  0  0
 17 18  1  0  0  0  0
 17 37  1  0  0  0  0
 17 38  1  0  0  0  0
 18 19  1  0  0  0  0
 18 39  1  0  0  0  0
 18 40  1  0  0  0  0
 19 20  1  0  0  0  0
 19 41  1  0  0  0  0
 19 42  1  0  0  0  0
 20 43  1  0  0  0  0
 20 44  1  0  0  0  0
M  CHG  1  12   1
M  END
> <BIOSOLVEIT.HYDE_ESTIMATED_AFFINITY_LOWER_BOUNDARY [nM]>
5158.130819

> <BIOSOLVEIT.HYDE_ESTIMATED_AFFINITY_UPPER_BOUNDARY [nM]>
512490.794168

> <BIOSOLVEIT.HYDE_LIGAND_EFFICIENCY range: ++, +, 0, -, -->
-

> <BIOSOLVEIT.HYDE_LIGAND_LIPOPHILIC_EFFICIENCY range: ++, +, 0, -, -->
-

> <BIOSOLVEIT.INTER_CLASH range: red, yellow, green>
green

> <BIOSOLVEIT.INTRA_CLASH range: red, yellow, green>
green

> <BIOSOLVEIT.LOGP>
1.2638

> <BIOSOLVEIT.MOLECULAR WEIGHT>
273.398

> <BIOSOLVEIT.MOLECULE_CHECKSUM>
LTI0LjQ4MTE7MS4yMjQwNg==

> <BIOSOLVEIT.TORSION_QUALITY range: red, yellow, green, not rotatable>
red

> <BIOSOLVEIT.TPSA>
33.54

$$$$
PV-000117880948.****
b8Hydescor01032215413D 1   1.00000     0.00000     0
Hydescorer 1.1.2 b8048283
 48 50  0  0  0  0            999 V2000
   18.5269  -41.3324  -13.0712 C   0  0  0  0  0  0  0  0  0  0  0  0
   18.5114  -39.9944  -12.6912 C   0  0  0  0  0  0  0  0  0  0  0  0
   19.6097  -39.4315  -12.0245 C   0  0  0  0  0  0  0  0  0  0  0  0
   20.7057  -40.2479  -11.7176 C   0  0  0  0  0  0  0  0  0  0  0  0
   20.7190  -41.5847  -12.0972 C   0  0  0  0  0  0  0  0  0  0  0  0
   19.6330  -42.1259  -12.7791 C   0  0  0  0  0  0  0  0  0  0  0  0
   19.6243  -38.0160  -11.6500 C   0  0  0  0  0  0  0  0  0  0  0  0
   18.5333  -37.3865  -11.1364 N   0  0  0  0  0  0  0  0  0  0  0  0
   20.5736  -37.2740  -11.8134 O   0  0  0  0  0  0  0  0  0  0  0  0
   18.5076  -35.9673  -10.7482 C   0  0  1  0  0  0  0  0  0  0  0  0
   17.1381  -35.3691  -11.1106 C   0  0  0  0  0  0  0  0  0  0  0  0
   16.2319  -35.7818   -9.9912 N   0  3  1  0  0  0  0  0  0  0  0  0
   17.0713  -36.3526   -8.9003 C   0  0  0  0  0  0  0  0  0  0  0  0
   18.4896  -35.8854   -9.2289 C   0  0  0  0  0  0  0  0  0  0  0  0
   15.5305  -34.5784   -9.4902 C   0  0  0  0  0  0  0  0  0  0  0  0
   14.7771  -33.9601  -10.6890 C   0  0  0  0  0  0  0  0  0  0  0  0
   14.4032  -35.0629  -11.7064 C   0  0  0  0  0  0  0  0  0  0  0  0
   13.7764  -34.4515  -12.9672 C   0  0  0  0  0  0  0  0  0  0  0  0
   14.7132  -33.4172  -13.6061 C   0  0  0  0  0  0  0  0  0  0  0  0
   15.0941  -32.3244  -12.5997 C   0  0  0  0  0  0  0  0  0  0  0  0
   15.7264  -32.9364  -11.3416 C   0  0  0  0  0  0  0  0  0  0  0  0
   17.7437  -41.7243  -13.5540 H   0  0  0  0  0  0  0  0  0  0  0  0
   17.7116  -39.4297  -12.8947 H   0  0  0  0  0  0  0  0  0  0  0  0
   21.4852  -39.8657  -11.2212 H   0  0  0  0  0  0  0  0  0  0  0  0
   21.5092  -42.1581  -11.8803 H   0  0  0  0  0  0  0  0  0  0  0  0
   19.6472  -43.0856  -13.0596 H   0  0  0  0  0  0  0  0  0  0  0  0
   17.6970  -37.9212  -11.0151 H   0  0  0  0  0  0  0  0  0  0  0  0
   19.2652  -35.4508  -11.1473 H   0  0  0  0  0  0  0  0  0  0  0  0
   16.8123  -35.7370  -11.9815 H   0  0  0  0  0  0  0  0  0  0  0  0
   17.1936  -34.3724  -11.1697 H   0  0  0  0  0  0  0  0  0  0  0  0
   17.0189  -37.3512   -8.8989 H   0  0  0  0  0  0  0  0  0  0  0  0
   16.7806  -36.0024   -8.0098 H   0  0  0  0  0  0  0  0  0  0  0  0
   18.6456  -34.9491   -8.9139 H   0  0  0  0  0  0  0  0  0  0  0  0
   19.1744  -36.4916   -8.8245 H   0  0  0  0  0  0  0  0  0  0  0  0
   16.1916  -33.9228   -9.1255 H   0  0  0  0  0  0  0  0  0  0  0  0
   14.8826  -34.8328   -8.7722 H   0  0  0  0  0  0  0  0  0  0  0  0
   13.9495  -33.4994  -10.3686 H   0  0  0  0  0  0  0  0  0  0  0  0
   13.7475  -35.6892  -11.2849 H   0  0  0  0  0  0  0  0  0  0  0  0
   15.2284  -35.5668  -11.9619 H   0  0  0  0  0  0  0  0  0  0  0  0
   12.9167  -34.0045  -12.7202 H   0  0  0  0  0  0  0  0  0  0  0  0
   13.5956  -35.1800  -13.6279 H   0  0  0  0  0  0  0  0  0  0  0  0
   14.2515  -32.9961  -14.3868 H   0  0  0  0  0  0  0  0  0  0  0  0
   15.5440  -33.8776  -13.9189 H   0  0  0  0  0  0  0  0  0  0  0  0
   14.2723  -31.8174  -12.3398 H   0  0  0  0  0  0  0  0  0  0  0  0
   15.7496  -31.7009  -13.0257 H   0  0  0  0  0  0  0  0  0  0  0  0
   16.5786  -33.3949  -11.5937 H   0  0  0  0  0  0  0  0  0  0  0  0
   15.9217  -32.2071  -10.6859 H   0  0  0  0  0  0  0  0  0  0  0  0
   15.5711  -36.4604  -10.3119 H   0  0  0  0  0  0  0  0  0  0  0  0
  1  2  2  0  0  0  0
  1  6  1  0  0  0  0
  1 22  1  0  0  0  0
  2  3  1  0  0  0  0
  2 23  1  0  0  0  0
  3  4  2  0  0  0  0
  3  7  1  0  0  0  0
  4  5  1  0  0  0  0
  4 24  1  0  0  0  0
  5  6  2  0  0  0  0
  5 25  1  0  0  0  0
  6 26  1  0  0  0  0
  7  8  1  0  0  0  0
  7  9  2  0  0  0  0
  8 10  1  0  0  0  0
  8 27  1  0  0  0  0
 10 11  1  0  0  0  0
 10 14  1  0  0  0  0
 10 28  1  0  0  0  0
 11 12  1  0  0  0  0
 11 29  1  0  0  0  0
 11 30  1  0  0  0  0
 12 13  1  0  0  0  0
 12 15  1  0  0  0  0
 12 48  1  0  0  0  0
 13 14  1  0  0  0  0
 13 31  1  0  0  0  0
 13 32  1  0  0  0  0
 14 33  1  0  0  0  0
 14 34  1  0  0  0  0
 15 16  1  0  0  0  0
 15 35  1  0  0  0  0
 15 36  1  0  0  0  0
 16 17  1  0  0  0  0
 16 21  1  0  0  0  0
 16 37  1  0  0  0  0
 17 18  1  0  0  0  0
 17 38  1  0  0  0  0
 17 39  1  0  0  0  0
 18 19  1  0  0  0  0
 18 40  1  0  0  0  0
 18 41  1  0  0  0  0
 19 20  1  0  0  0  0
 19 42  1  0  0  0  0
 19 43  1  0  0  0  0
 20 21  1  0  0  0  0
 20 44  1  0  0  0  0
 20 45  1  0  0  0  0
 21 46  1  0  0  0  0
 21 47  1  0  0  0  0
M  CHG  1  12   1
M  END
> <BIOSOLVEIT.HYDE_ESTIMATED_AFFINITY_LOWER_BOUNDARY [nM]>
53009309.668154

> <BIOSOLVEIT.HYDE_ESTIMATED_AFFINITY_UPPER_BOUNDARY [nM]>
5266788331.373914

> <BIOSOLVEIT.HYDE_LIGAND_EFFICIENCY range: ++, +, 0, -, -->
--

> <BIOSOLVEIT.HYDE_LIGAND_LIPOPHILIC_EFFICIENCY range: ++, +, 0, -, -->
--

> <BIOSOLVEIT.INTER_CLASH range: red, yellow, green>
green

> <BIOSOLVEIT.INTRA_CLASH range: red, yellow, green>
red

> <BIOSOLVEIT.LOGP>
1.6539

> <BIOSOLVEIT.MOLECULAR WEIGHT>
287.424

> <BIOSOLVEIT.MOLECULE_CHECKSUM>
LTEuNTgxNDE7MC4wNzUzMDUy

> <BIOSOLVEIT.TORSION_QUALITY range: red, yellow, green, not rotatable>
green

> <BIOSOLVEIT.TPSA>
33.54

$$$$
PV-000117880948.****
b8Hydescor01032215413D 1   1.00000     0.00000     0
Hydescorer 1.1.2 b8048283
 48 50  0  0  0  0            999 V2000
   22.2034  -40.9520  -12.6679 C   0  0  0  0  0  0  0  0  0  0  0  0
   20.8419  -40.6708  -12.6240 C   0  0  0  0  0  0  0  0  0  0  0  0
   20.3658  -39.5711  -11.8949 C   0  0  0  0  0  0  0  0  0  0  0  0
   21.2804  -38.7834  -11.1843 C   0  0  0  0  0  0  0  0  0  0  0  0
   22.6402  -39.0665  -11.2285 C   0  0  0  0  0  0  0  0  0  0  0  0
   23.1030  -40.1465  -11.9747 C   0  0  0  0  0  0  0  0  0  0  0  0
   18.9396  -39.2400  -11.8683 C   0  0  0  0  0  0  0  0  0  0  0  0
   18.4856  -37.9971  -11.5533 N   0  0  0  0  0  0  0  0  0  0  0  0
   18.0466  -40.0417  -12.0639 O   0  0  0  0  0  0  0  0  0  0  0  0
   17.0622  -37.6249  -11.5154 C   0  0  1  0  0  0  0  0  0  0  0  0
   16.7717  -36.8719  -10.2065 C   0  0  0  0  0  0  0  0  0  0  0  0
   17.2221  -35.4666  -10.4653 N   0  3  1  0  0  0  0  0  0  0  0  0
   17.5056  -35.3304  -11.9219 C   0  0  0  0  0  0  0  0  0  0  0  0
   16.8212  -36.5417  -12.5565 C   0  0  0  0  0  0  0  0  0  0  0  0
   16.1229  -34.5479  -10.0927 C   0  0  0  0  0  0  0  0  0  0  0  0
   16.5673  -33.1231  -10.4919 C   0  0  0  0  0  0  0  0  0  0  0  0
   16.5549  -32.1971   -9.2535 C   0  0  0  0  0  0  0  0  0  0  0  0
   16.8604  -30.7470   -9.6541 C   0  0  0  0  0  0  0  0  0  0  0  0
   15.8735  -30.2462  -10.7174 C   0  0  0  0  0  0  0  0  0  0  0  0
   15.8752  -31.1648  -11.9455 C   0  0  0  0  0  0  0  0  0  0  0  0
   15.5637  -32.6138  -11.5448 C   0  0  0  0  0  0  0  0  0  0  0  0
   22.5361  -41.7325  -13.1972 H   0  0  0  0  0  0  0  0  0  0  0  0
   20.1978  -41.2567  -13.1158 H   0  0  0  0  0  0  0  0  0  0  0  0
   20.9521  -38.0110  -10.6406 H   0  0  0  0  0  0  0  0  0  0  0  0
   23.2865  -38.4940  -10.7240 H   0  0  0  0  0  0  0  0  0  0  0  0
   24.0825  -40.3441  -12.0129 H   0  0  0  0  0  0  0  0  0  0  0  0
   19.1607  -37.2927  -11.3340 H   0  0  0  0  0  0  0  0  0  0  0  0
   16.4601  -38.4133  -11.6416 H   0  0  0  0  0  0  0  0  0  0  0  0
   17.2858  -37.2725   -9.4481 H   0  0  0  0  0  0  0  0  0  0  0  0
   15.7944  -36.8955   -9.9960 H   0  0  0  0  0  0  0  0  0  0  0  0
   18.4905  -35.3497  -12.0942 H   0  0  0  0  0  0  0  0  0  0  0  0
   17.1214  -34.4791  -12.2793 H   0  0  0  0  0  0  0  0  0  0  0  0
   15.8439  -36.3777  -12.6903 H   0  0  0  0  0  0  0  0  0  0  0  0
   17.2422  -36.7792  -13.4318 H   0  0  0  0  0  0  0  0  0  0  0  0
   15.9578  -34.5922   -9.1075 H   0  0  0  0  0  0  0  0  0  0  0  0
   15.2871  -34.7964  -10.5823 H   0  0  0  0  0  0  0  0  0  0  0  0
   17.4863  -33.1519  -10.8850 H   0  0  0  0  0  0  0  0  0  0  0  0
   17.2468  -32.5103   -8.6030 H   0  0  0  0  0  0  0  0  0  0  0  0
   15.6525  -32.2355   -8.8245 H   0  0  0  0  0  0  0  0  0  0  0  0
   17.7889  -30.6988  -10.0223 H   0  0  0  0  0  0  0  0  0  0  0  0
   16.7920  -30.1636   -8.8449 H   0  0  0  0  0  0  0  0  0  0  0  0
   16.1366  -29.3235  -10.9990 H   0  0  0  0  0  0  0  0  0  0  0  0
   14.9536  -30.2257  -10.3259 H   0  0  0  0  0  0  0  0  0  0  0  0
   16.7760  -31.1311  -12.3786 H   0  0  0  0  0  0  0  0  0  0  0  0
   15.1821  -30.8477  -12.5928 H   0  0  0  0  0  0  0  0  0  0  0  0
   14.6401  -32.6565  -11.1639 H   0  0  0  0  0  0  0  0  0  0  0  0
   15.6169  -33.1961  -12.3561 H   0  0  0  0  0  0  0  0  0  0  0  0
   18.0423  -35.2612   -9.9314 H   0  0  0  0  0  0  0  0  0  0  0  0
  1  2  2  0  0  0  0
  1  6  1  0  0  0  0
  1 22  1  0  0  0  0
  2  3  1  0  0  0  0
  2 23  1  0  0  0  0
  3  4  2  0  0  0  0
  3  7  1  0  0  0  0
  4  5  1  0  0  0  0
  4 24  1  0  0  0  0
  5  6  2  0  0  0  0
  5 25  1  0  0  0  0
  6 26  1  0  0  0  0
  7  8  1  0  0  0  0
  7  9  2  0  0  0  0
  8 10  1  0  0  0  0
  8 27  1  0  0  0  0
 10 11  1  0  0  0  0
 10 14  1  0  0  0  0
 10 28  1  0  0  0  0
 11 12  1  0  0  0  0
 11 29  1  0  0  0  0
 11 30  1  0  0  0  0
 12 13  1  0  0  0  0
 12 15  1  0  0  0  0
 12 48  1  0  0  0  0
 13 14  1  0  0  0  0
 13 31  1  0  0  0  0
 13 32  1  0  0  0  0
 14 33  1  0  0  0  0
 14 34  1  0  0  0  0
 15 16  1  0  0  0  0
 15 35  1  0  0  0  0
 15 36  1  0  0  0  0
 16 17  1  0  0  0  0
 16 21  1  0  0  0  0
 16 37  1  0  0  0  0
 17 18  1  0  0  0  0
 17 38  1  0  0  0  0
 17 39  1  0  0  0  0
 18 19  1  0  0  0  0
 18 40  1  0  0  0  0
 18 41  1  0  0  0  0
 19 20  1  0  0  0  0
 19 42  1  0  0  0  0
 19 43  1  0  0  0  0
 20 21  1  0  0  0  0
 20 44  1  0  0  0  0
 20 45  1  0  0  0  0
 21 46  1  0  0  0  0
 21 47  1  0  0  0  0
M  CHG  1  12   1
M  END
> <BIOSOLVEIT.HYDE_ESTIMATED_AFFINITY_LOWER_BOUNDARY [nM]>
591315.068003

> <BIOSOLVEIT.HYDE_ESTIMATED_AFFINITY_UPPER_BOUNDARY [nM]>
58750648.137484

> <BIOSOLVEIT.HYDE_LIGAND_EFFICIENCY range: ++, +, 0, -, -->
--

> <BIOSOLVEIT.HYDE_LIGAND_LIPOPHILIC_EFFICIENCY range: ++, +, 0, -, -->
--

> <BIOSOLVEIT.INTER_CLASH range: red, yellow, green>
green

> <BIOSOLVEIT.INTRA_CLASH range: red, yellow, green>
green

> <BIOSOLVEIT.LOGP>
1.6539

> <BIOSOLVEIT.MOLECULAR WEIGHT>
287.424

> <BIOSOLVEIT.MOLECULE_CHECKSUM>
LTEyLjcyNjU7MC42MDYwMjM=

> <BIOSOLVEIT.TORSION_QUALITY range: red, yellow, green, not rotatable>
yellow

> <BIOSOLVEIT.TPSA>
33.54

$$$$
PV-000117880948.****
b8Hydescor01032215413D 1   1.00000     0.00000     0
Hydescorer 1.1.2 b8048283
 48 50  0  0  0  0            999 V2000
   17.1394  -30.4604   -9.4738 C   0  0  0  0  0  0  0  0  0  0  0  0
   16.4257  -31.6522   -9.5457 C   0  0  0  0  0  0  0  0  0  0  0  0
   15.8263  -32.0509  -10.7496 C   0  0  0  0  0  0  0  0  0  0  0  0
   15.9293  -31.2122  -11.8667 C   0  0  0  0  0  0  0  0  0  0  0  0
   16.6420  -30.0215  -11.7928 C   0  0  0  0  0  0  0  0  0  0  0  0
   17.2522  -29.6480  -10.5988 C   0  0  0  0  0  0  0  0  0  0  0  0
   15.1025  -33.3197  -10.8516 C   0  0  0  0  0  0  0  0  0  0  0  0
   15.4371  -34.4113  -10.1122 N   0  0  0  0  0  0  0  0  0  0  0  0
   14.1928  -33.5286  -11.6308 O   0  0  0  0  0  0  0  0  0  0  0  0
   14.7355  -35.7029  -10.1856 C   0  0  1  0  0  0  0  0  0  0  0  0
   15.0696  -36.3838  -11.5232 C   0  0  0  0  0  0  0  0  0  0  0  0
   16.4065  -37.0236  -11.3037 N   0  3  1  0  0  0  0  0  0  0  0  0
   16.7185  -36.9599   -9.8479 C   0  0  0  0  0  0  0  0  0  0  0  0
   15.3749  -36.6542   -9.1850 C   0  0  0  0  0  0  0  0  0  0  0  0
   16.3212  -38.4402  -11.7243 C   0  0  0  0  0  0  0  0  0  0  0  0
   16.1962  -38.4497  -13.2641 C   0  0  0  0  0  0  0  0  0  0  0  0
   15.3781  -39.6794  -13.7223 C   0  0  0  0  0  0  0  0  0  0  0  0
   15.3593  -39.7816  -15.2538 C   0  0  0  0  0  0  0  0  0  0  0  0
   16.7836  -39.8332  -15.8233 C   0  0  0  0  0  0  0  0  0  0  0  0
   17.6030  -38.6201  -15.3662 C   0  0  0  0  0  0  0  0  0  0  0  0
   17.6262  -38.5219  -13.8342 C   0  0  0  0  0  0  0  0  0  0  0  0
   17.5713  -30.1872   -8.6142 H   0  0  0  0  0  0  0  0  0  0  0  0
   16.3392  -32.2288   -8.7333 H   0  0  0  0  0  0  0  0  0  0  0  0
   15.4864  -31.4725  -12.7246 H   0  0  0  0  0  0  0  0  0  0  0  0
   16.7164  -29.4327  -12.5978 H   0  0  0  0  0  0  0  0  0  0  0  0
   17.7722  -28.7952  -10.5490 H   0  0  0  0  0  0  0  0  0  0  0  0
   16.2074  -34.3311   -9.4796 H   0  0  0  0  0  0  0  0  0  0  0  0
   13.7502  -35.6083  -10.0433 H   0  0  0  0  0  0  0  0  0  0  0  0
   15.1187  -35.7089  -12.2595 H   0  0  0  0  0  0  0  0  0  0  0  0
   14.3817  -37.0738  -11.7488 H   0  0  0  0  0  0  0  0  0  0  0  0
   17.3798  -36.2339   -9.6590 H   0  0  0  0  0  0  0  0  0  0  0  0
   17.0818  -37.8339   -9.5251 H   0  0  0  0  0  0  0  0  0  0  0  0
   14.8283  -37.4840   -9.0726 H   0  0  0  0  0  0  0  0  0  0  0  0
   15.5006  -36.2149   -8.2955 H   0  0  0  0  0  0  0  0  0  0  0  0
   15.5191  -38.8726  -11.3123 H   0  0  0  0  0  0  0  0  0  0  0  0
   17.1458  -38.9316  -11.4439 H   0  0  0  0  0  0  0  0  0  0  0  0
   15.7493  -37.6103  -13.5735 H   0  0  0  0  0  0  0  0  0  0  0  0
   14.4397  -39.5919  -13.3881 H   0  0  0  0  0  0  0  0  0  0  0  0
   15.7912  -40.5076  -13.3435 H   0  0  0  0  0  0  0  0  0  0  0  0
   14.8869  -38.9836  -15.6284 H   0  0  0  0  0  0  0  0  0  0  0  0
   14.8713  -40.6130  -15.5195 H   0  0  0  0  0  0  0  0  0  0  0  0
   16.7364  -39.8384  -16.8221 H   0  0  0  0  0  0  0  0  0  0  0  0
   17.2323  -40.6690  -15.5065 H   0  0  0  0  0  0  0  0  0  0  0  0
   17.1941  -37.7883  -15.7417 H   0  0  0  0  0  0  0  0  0  0  0  0
   18.5401  -38.7122  -15.7028 H   0  0  0  0  0  0  0  0  0  0  0  0
   18.0866  -39.3277  -13.4617 H   0  0  0  0  0  0  0  0  0  0  0  0
   18.1269  -37.6986  -13.5668 H   0  0  0  0  0  0  0  0  0  0  0  0
   17.1101  -36.5469  -11.8306 H   0  0  0  0  0  0  0  0  0  0  0  0
  1  2  2  0  0  0  0
  1  6  1  0  0  0  0
  1 22  1  0  0  0  0
  2  3  1  0  0  0  0
  2 23  1  0  0  0  0
  3  4  2  0  0  0  0
  3  7  1  0  0  0  0
  4  5  1  0  0  0  0
  4 24  1  0  0  0  0
  5  6  2  0  0  0  0
  5 25  1  0  0  0  0
  6 26  1  0  0  0  0
  7  8  1  0  0  0  0
  7  9  2  0  0  0  0
  8 10  1  0  0  0  0
  8 27  1  0  0  0  0
 10 11  1  0  0  0  0
 10 14  1  0  0  0  0
 10 28  1  0  0  0  0
 11 12  1  0  0  0  0
 11 29  1  0  0  0  0
 11 30  1  0  0  0  0
 12 13  1  0  0  0  0
 12 15  1  0  0  0  0
 12 48  1  0  0  0  0
 13 14  1  0  0  0  0
 13 31  1  0  0  0  0
 13 32  1  0  0  0  0
 14 33  1  0  0  0  0
 14 34  1  0  0  0  0
 15 16  1  0  0  0  0
 15 35  1  0  0  0  0
 15 36  1  0  0  0  0
 16 17  1  0  0  0  0
 16 21  1  0  0  0  0
 16 37  1  0  0  0  0
 17 18  1  0  0  0  0
 17 38  1  0  0  0  0
 17 39  1  0  0  0  0
 18 19  1  0  0  0  0
 18 40  1  0  0  0  0
 18 41  1  0  0  0  0
 19 20  1  0  0  0  0
 19 42  1  0  0  0  0
 19 43  1  0  0  0  0
 20 21  1  0  0  0  0
 20 44  1  0  0  0  0
 20 45  1  0  0  0  0
 21 46  1  0  0  0  0
 21 47  1  0  0  0  0
M  CHG  1  12   1
M  END
> <BIOSOLVEIT.HYDE_ESTIMATED_AFFINITY_LOWER_BOUNDARY [nM]>
6580042.120036

> <BIOSOLVEIT.HYDE_ESTIMATED_AFFINITY_UPPER_BOUNDARY [nM]>
653766088.913509

> <BIOSOLVEIT.HYDE_LIGAND_EFFICIENCY range: ++, +, 0, -, -->
--

> <BIOSOLVEIT.HYDE_LIGAND_LIPOPHILIC_EFFICIENCY range: ++, +, 0, -, -->
--

> <BIOSOLVEIT.INTER_CLASH range: red, yellow, green>
green

> <BIOSOLVEIT.INTRA_CLASH range: red, yellow, green>
green

> <BIOSOLVEIT.LOGP>
1.6539

> <BIOSOLVEIT.MOLECULAR WEIGHT>
287.424

> <BIOSOLVEIT.MOLECULE_CHECKSUM>
LTYuNzUzNTc7MC4zMjE1OTk=

> <BIOSOLVEIT.TORSION_QUALITY range: red, yellow, green, not rotatable>
green

> <BIOSOLVEIT.TPSA>
33.54

$$$$
PV-000117880948.****
b8Hydescor01032215413D 1   1.00000     0.00000     0
Hydescorer 1.1.2 b8048283
 48 50  0  0  0  0            999 V2000
   16.2243  -30.5268  -11.8665 C   0  0  0  0  0  0  0  0  0  0  0  0
   15.6695  -31.7473  -11.4954 C   0  0  0  0  0  0  0  0  0  0  0  0
   15.8574  -32.2493  -10.1992 C   0  0  0  0  0  0  0  0  0  0  0  0
   16.6414  -31.5183   -9.2976 C   0  0  0  0  0  0  0  0  0  0  0  0
   17.1957  -30.2996   -9.6703 C   0  0  0  0  0  0  0  0  0  0  0  0
   16.9826  -29.8006  -10.9521 C   0  0  0  0  0  0  0  0  0  0  0  0
   15.2500  -33.5146   -9.7816 C   0  0  0  0  0  0  0  0  0  0  0  0
   15.9833  -34.6404   -9.5698 N   0  0  0  0  0  0  0  0  0  0  0  0
   14.0542  -33.6881   -9.6446 O   0  0  0  0  0  0  0  0  0  0  0  0
   15.4111  -35.9298   -9.1501 C   0  0  1  0  0  0  0  0  0  0  0  0
   14.6333  -36.5438  -10.3258 C   0  0  0  0  0  0  0  0  0  0  0  0
   15.6802  -37.1881  -11.1825 N   0  3  1  0  0  0  0  0  0  0  0  0
   16.9626  -37.1937  -10.4236 C   0  0  0  0  0  0  0  0  0  0  0  0
   16.5481  -36.9259   -8.9763 C   0  0  0  0  0  0  0  0  0  0  0  0
   15.2668  -38.5831  -11.4553 C   0  0  0  0  0  0  0  0  0  0  0  0
   15.5688  -38.8630  -12.9443 C   0  0  0  0  0  0  0  0  0  0  0  0
   17.0286  -38.4721  -13.2723 C   0  0  0  0  0  0  0  0  0  0  0  0
   17.3062  -38.6137  -14.7753 C   0  0  0  0  0  0  0  0  0  0  0  0
   16.3206  -37.7770  -15.6022 C   0  0  0  0  0  0  0  0  0  0  0  0
   14.8702  -38.1544  -15.2761 C   0  0  0  0  0  0  0  0  0  0  0  0
   14.5917  -38.0068  -13.7735 C   0  0  0  0  0  0  0  0  0  0  0  0
   16.0787  -30.1712  -12.7897 H   0  0  0  0  0  0  0  0  0  0  0  0
   15.1328  -32.2704  -12.1575 H   0  0  0  0  0  0  0  0  0  0  0  0
   16.8035  -31.8763   -8.3781 H   0  0  0  0  0  0  0  0  0  0  0  0
   17.7479  -29.7810   -9.0174 H   0  0  0  0  0  0  0  0  0  0  0  0
   17.3745  -28.9193  -11.2165 H   0  0  0  0  0  0  0  0  0  0  0  0
   16.9724  -34.5889   -9.7078 H   0  0  0  0  0  0  0  0  0  0  0  0
   14.8505  -35.8461   -8.3263 H   0  0  0  0  0  0  0  0  0  0  0  0
   14.1483  -35.8338  -10.8365 H   0  0  0  0  0  0  0  0  0  0  0  0
   13.9786  -37.2247   -9.9977 H   0  0  0  0  0  0  0  0  0  0  0  0
   17.5736  -36.4751  -10.7556 H   0  0  0  0  0  0  0  0  0  0  0  0
   17.4171  -38.0808  -10.5033 H   0  0  0  0  0  0  0  0  0  0  0  0
   16.2326  -37.7623   -8.5283 H   0  0  0  0  0  0  0  0  0  0  0  0
   17.3008  -36.5297   -8.4506 H   0  0  0  0  0  0  0  0  0  0  0  0
   14.2889  -38.6922  -11.2772 H   0  0  0  0  0  0  0  0  0  0  0  0
   15.7835  -39.2135  -10.8760 H   0  0  0  0  0  0  0  0  0  0  0  0
   15.4240  -39.8321  -13.1436 H   0  0  0  0  0  0  0  0  0  0  0  0
   17.6498  -39.0704  -12.7663 H   0  0  0  0  0  0  0  0  0  0  0  0
   17.1832  -37.5228  -12.9983 H   0  0  0  0  0  0  0  0  0  0  0  0
   17.2157  -39.5753  -15.0347 H   0  0  0  0  0  0  0  0  0  0  0  0
   18.2375  -38.3034  -14.9658 H   0  0  0  0  0  0  0  0  0  0  0  0
   16.4898  -37.9387  -16.5745 H   0  0  0  0  0  0  0  0  0  0  0  0
   16.4607  -36.8085  -15.3961 H   0  0  0  0  0  0  0  0  0  0  0  0
   14.7097  -39.1034  -15.5474 H   0  0  0  0  0  0  0  0  0  0  0  0
   14.2532  -37.5535  -15.7842 H   0  0  0  0  0  0  0  0  0  0  0  0
   14.6969  -37.0468  -13.5141 H   0  0  0  0  0  0  0  0  0  0  0  0
   13.6555  -38.3027  -13.5838 H   0  0  0  0  0  0  0  0  0  0  0  0
   15.7862  -36.6837  -12.0395 H   0  0  0  0  0  0  0  0  0  0  0  0
  1  2  2  0  0  0  0
  1  6  1  0  0  0  0
  1 22  1  0  0  0  0
  2  3  1  0  0  0  0
  2 23  1  0  0  0  0
  3  4  2  0  0  0  0
  3  7  1  0  0  0  0
  4  5  1  0  0  0  0
  4 24  1  0  0  0  0
  5  6  2  0  0  0  0
  5 25  1  0  0  0  0
  6 26  1  0  0  0  0
  7  8  1  0  0  0  0
  7  9  2  0  0  0  0
  8 10  1  0  0  0  0
  8 27  1  0  0  0  0
 10 11  1  0  0  0  0
 10 14  1  0  0  0  0
 10 28  1  0  0  0  0
 11 12  1  0  0  0  0
 11 29  1  0  0  0  0
 11 30  1  0  0  0  0
 12 13  1  0  0  0  0
 12 15  1  0  0  0  0
 12 48  1  0  0  0  0
 13 14  1  0  0  0  0
 13 31  1  0  0  0  0
 13 32  1  0  0  0  0
 14 33  1  0  0  0  0
 14 34  1  0  0  0  0
 15 16  1  0  0  0  0
 15 35  1  0  0  0  0
 15 36  1  0  0  0  0
 16 17  1  0  0  0  0
 16 21  1  0  0  0  0
 16 37  1  0  0  0  0
 17 18  1  0  0  0  0
 17 38  1  0  0  0  0
 17 39  1  0  0  0  0
 18 19  1  0  0  0  0
 18 40  1  0  0  0  0
 18 41  1  0  0  0  0
 19 20  1  0  0  0  0
 19 42  1  0  0  0  0
 19 43  1  0  0  0  0
 20 21  1  0  0  0  0
 20 44  1  0  0  0  0
 20 45  1  0  0  0  0
 21 46  1  0  0  0  0
 21 47  1  0  0  0  0
M  CHG  1  12   1
M  END
> <BIOSOLVEIT.HYDE_ESTIMATED_AFFINITY_LOWER_BOUNDARY [nM]>
44382.559445

> <BIOSOLVEIT.HYDE_ESTIMATED_AFFINITY_UPPER_BOUNDARY [nM]>
4409669.691293

> <BIOSOLVEIT.HYDE_LIGAND_EFFICIENCY range: ++, +, 0, -, -->
-

> <BIOSOLVEIT.HYDE_LIGAND_LIPOPHILIC_EFFICIENCY range: ++, +, 0, -, -->
--

> <BIOSOLVEIT.INTER_CLASH range: red, yellow, green>
green

> <BIOSOLVEIT.INTRA_CLASH range: red, yellow, green>
green

> <BIOSOLVEIT.LOGP>
1.6539

> <BIOSOLVEIT.MOLECULAR WEIGHT>
287.424

> <BIOSOLVEIT.MOLECULE_CHECKSUM>
LTE5LjE0NTg7MC45MTE3MDI=

> <BIOSOLVEIT.TORSION_QUALITY range: red, yellow, green, not rotatable>
yellow

> <BIOSOLVEIT.TPSA>
33.54

$$$$
G4.sdf
b8Hydescor01032215413D 1   1.00000     0.00000     0
Hydescorer 1.1.2 b8048283
 79 83  0  0  0  0            999 V2000
   14.6652  -43.3040   -9.5050 C   0  0  0  0  0  0  0  0  0  0  0  0
   13.6736  -43.4400  -10.4163 C   0  0  0  0  0  0  0  0  0  0  0  0
   13.9181  -42.5156  -11.4318 C   0  0  0  0  0  0  0  0  0  0  0  0
   15.0599  -41.8418  -11.1062 C   0  0  0  0  0  0  0  0  0  0  0  0
   15.5164  -42.3366   -9.9046 O   0  0  0  0  0  0  0  0  0  0  0  0
   15.7633  -40.7726  -11.8096 C   0  0  0  0  0  0  0  0  0  0  0  0
   15.7717  -40.7835  -13.1775 N   0  0  0  0  0  0  0  0  0  0  0  0
   16.3401  -39.8373  -11.2614 O   0  0  0  0  0  0  0  0  0  0  0  0
   16.4691  -39.7247  -13.9403 C   0  0  2  0  0  0  0  0  0  0  0  0
   15.4189  -38.6722  -14.3412 C   0  0  0  0  0  0  0  0  0  0  0  0
   17.0707  -40.3756  -15.2116 C   0  0  0  0  0  0  0  0  0  0  0  0
   18.2903  -41.2579  -14.8521 C   0  0  0  0  0  0  0  0  0  0  0  0
   19.4835  -41.0752  -15.8099 C   0  0  0  0  0  0  0  0  0  0  0  0
   20.7008  -41.9085  -15.3616 C   0  0  0  0  0  0  0  0  0  0  0  0
   20.3310  -43.1820  -14.5803 C   0  0  0  0  0  0  0  0  0  0  0  0
   18.9921  -43.7494  -15.0642 C   0  0  0  0  0  0  0  0  0  0  0  0
   17.8459  -42.7395  -14.8597 C   0  0  0  0  0  0  0  0  0  0  0  0
   14.9866  -37.8685  -13.3657 N   0  0  0  0  0  0  0  0  0  0  0  0
   14.9107  -38.6257  -15.4598 O   0  0  0  0  0  0  0  0  0  0  0  0
   13.9947  -36.8153  -13.5618 C   0  0  0  0  0  0  0  0  0  0  0  0
   14.6027  -35.5034  -13.0528 C   0  0  2  0  0  0  0  0  0  0  0  0
   14.4399  -35.3999  -11.5208 C   0  0  0  0  0  0  0  0  0  0  0  0
   15.0565  -34.0934  -11.1642 N   0  0  0  0  0  0  0  0  0  0  0  0
   14.3451  -32.9499  -11.7961 C   0  0  0  0  0  0  0  0  0  0  0  0
   14.4939  -33.1429  -13.3245 C   0  0  0  0  0  0  0  0  0  0  0  0
   13.9071  -34.4028  -13.6523 O   0  0  0  0  0  0  0  0  0  0  0  0
   16.4189  -34.0305  -10.9010 C   0  0  0  0  0  0  0  0  0  0  0  0
   16.8157  -33.1322  -10.1672 O   0  0  0  0  0  0  0  0  0  0  0  0
   17.3329  -35.0337  -11.4469 C   0  0  0  0  0  0  0  0  0  0  0  0
   17.7097  -36.1326  -10.6651 C   0  0  0  0  0  0  0  0  0  0  0  0
   18.5570  -37.1072  -11.1745 C   0  0  0  0  0  0  0  0  0  0  0  0
   19.0570  -37.0120  -12.4824 C   0  0  0  0  0  0  0  0  0  0  0  0
   18.7078  -35.8900  -13.2518 C   0  0  0  0  0  0  0  0  0  0  0  0
   17.8579  -34.9162  -12.7416 C   0  0  0  0  0  0  0  0  0  0  0  0
   19.9347  -38.0583  -13.0104 C   0  0  0  0  0  0  0  0  0  0  0  0
   20.0543  -38.1782  -14.2224 O   0  0  0  0  0  0  0  0  0  0  0  0
   20.6765  -38.9615  -12.1288 C   0  0  0  0  0  0  0  0  0  0  0  0
   21.7577  -38.5036  -11.3587 C   0  0  0  0  0  0  0  0  0  0  0  0
   22.4430  -39.3709  -10.5152 C   0  0  0  0  0  0  0  0  0  0  0  0
   22.0650  -40.7077  -10.4342 C   0  0  0  0  0  0  0  0  0  0  0  0
   21.0064  -41.1794  -11.2032 C   0  0  0  0  0  0  0  0  0  0  0  0
   20.3195  -40.3152  -12.0473 C   0  0  0  0  0  0  0  0  0  0  0  0
   14.7533  -43.8386   -8.6645 H   0  0  0  0  0  0  0  0  0  0  0  0
   12.9089  -44.0827  -10.3701 H   0  0  0  0  0  0  0  0  0  0  0  0
   13.3594  -42.3726  -12.2487 H   0  0  0  0  0  0  0  0  0  0  0  0
   15.3005  -41.5166  -13.6682 H   0  0  0  0  0  0  0  0  0  0  0  0
   17.1890  -39.3084  -13.3850 H   0  0  0  0  0  0  0  0  0  0  0  0
   17.3611  -39.6559  -15.8424 H   0  0  0  0  0  0  0  0  0  0  0  0
   16.3739  -40.9425  -15.6509 H   0  0  0  0  0  0  0  0  0  0  0  0
   18.5888  -41.0224  -13.9272 H   0  0  0  0  0  0  0  0  0  0  0  0
   19.7402  -40.1089  -15.8284 H   0  0  0  0  0  0  0  0  0  0  0  0
   19.2111  -41.3654  -16.7272 H   0  0  0  0  0  0  0  0  0  0  0  0
   21.2761  -41.3362  -14.7771 H   0  0  0  0  0  0  0  0  0  0  0  0
   21.2157  -42.1769  -16.1757 H   0  0  0  0  0  0  0  0  0  0  0  0
   20.2607  -42.9607  -13.6076 H   0  0  0  0  0  0  0  0  0  0  0  0
   21.0456  -43.8683  -14.7152 H   0  0  0  0  0  0  0  0  0  0  0  0
   18.7871  -44.5825  -14.5503 H   0  0  0  0  0  0  0  0  0  0  0  0
   19.0639  -43.9673  -16.0375 H   0  0  0  0  0  0  0  0  0  0  0  0
   17.1847  -42.8635  -15.5996 H   0  0  0  0  0  0  0  0  0  0  0  0
   17.4069  -42.9385  -13.9835 H   0  0  0  0  0  0  0  0  0  0  0  0
   15.3641  -37.9956  -12.4485 H   0  0  0  0  0  0  0  0  0  0  0  0
   13.1646  -37.0287  -13.0464 H   0  0  0  0  0  0  0  0  0  0  0  0
   13.7721  -36.7334  -14.5332 H   0  0  0  0  0  0  0  0  0  0  0  0
   15.5723  -35.4632  -13.2940 H   0  0  0  0  0  0  0  0  0  0  0  0
   14.9160  -36.1512  -11.0639 H   0  0  0  0  0  0  0  0  0  0  0  0
   13.4728  -35.4146  -11.2670 H   0  0  0  0  0  0  0  0  0  0  0  0
   14.7594  -32.0847  -11.5137 H   0  0  0  0  0  0  0  0  0  0  0  0
   13.3790  -32.9568  -11.5380 H   0  0  0  0  0  0  0  0  0  0  0  0
   15.4615  -33.1399  -13.5773 H   0  0  0  0  0  0  0  0  0  0  0  0
   14.0202  -32.4080  -13.8100 H   0  0  0  0  0  0  0  0  0  0  0  0
   17.3648  -36.2162   -9.7302 H   0  0  0  0  0  0  0  0  0  0  0  0
   18.8140  -37.8862  -10.6026 H   0  0  0  0  0  0  0  0  0  0  0  0
   19.0748  -35.7909  -14.1767 H   0  0  0  0  0  0  0  0  0  0  0  0
   17.6186  -34.1241  -13.3032 H   0  0  0  0  0  0  0  0  0  0  0  0
   22.0373  -37.5453  -11.4174 H   0  0  0  0  0  0  0  0  0  0  0  0
   23.2079  -39.0338   -9.9665 H   0  0  0  0  0  0  0  0  0  0  0  0
   22.5547  -41.3293   -9.8229 H   0  0  0  0  0  0  0  0  0  0  0  0
   20.7393  -42.1416  -11.1487 H   0  0  0  0  0  0  0  0  0  0  0  0
   19.5632  -40.6619  -12.6020 H   0  0  0  0  0  0  0  0  0  0  0  0
  1  2  2  0  0  0  0
  1  5  1  0  0  0  0
  1 43  1  0  0  0  0
  2  3  1  0  0  0  0
  2 44  1  0  0  0  0
  3  4  2  0  0  0  0
  3 45  1  0  0  0  0
  4  5  1  0  0  0  0
  4  6  1  0  0  0  0
  6  7  1  0  0  0  0
  6  8  2  0  0  0  0
  7  9  1  0  0  0  0
  7 46  1  0  0  0  0
  9 10  1  0  0  0  0
  9 11  1  0  0  0  0
  9 47  1  0  0  0  0
 10 18  1  0  0  0  0
 10 19  2  0  0  0  0
 11 12  1  0  0  0  0
 11 48  1  0  0  0  0
 11 49  1  0  0  0  0
 12 13  1  0  0  0  0
 12 17  1  0  0  0  0
 12 50  1  0  0  0  0
 13 14  1  0  0  0  0
 13 51  1  0  0  0  0
 13 52  1  0  0  0  0
 14 15  1  0  0  0  0
 14 53  1  0  0  0  0
 14 54  1  0  0  0  0
 15 16  1  0  0  0  0
 15 55  1  0  0  0  0
 15 56  1  0  0  0  0
 16 17  1  0  0  0  0
 16 57  1  0  0  0  0
 16 58  1  0  0  0  0
 17 59  1  0  0  0  0
 17 60  1  0  0  0  0
 18 20  1  0  0  0  0
 18 61  1  0  0  0  0
 20 21  1  0  0  0  0
 20 62  1  0  0  0  0
 20 63  1  0  0  0  0
 21 22  1  0  0  0  0
 21 26  1  0  0  0  0
 21 64  1  0  0  0  0
 22 23  1  0  0  0  0
 22 65  1  0  0  0  0
 22 66  1  0  0  0  0
 23 24  1  0  0  0  0
 23 27  1  0  0  0  0
 24 25  1  0  0  0  0
 24 67  1  0  0  0  0
 24 68  1  0  0  0  0
 25 26  1  0  0  0  0
 25 69  1  0  0  0  0
 25 70  1  0  0  0  0
 27 28  2  0  0  0  0
 27 29  1  0  0  0  0
 29 30  2  0  0  0  0
 29 34  1  0  0  0  0
 30 31  1  0  0  0  0
 30 71  1  0  0  0  0
 31 32  2  0  0  0  0
 31 72  1  0  0  0  0
 32 33  1  0  0  0  0
 32 35  1  0  0  0  0
 33 34  2  0  0  0  0
 33 73  1  0  0  0  0
 34 74  1  0  0  0  0
 35 36  2  0  0  0  0
 35 37  1  0  0  0  0
 37 38  2  0  0  0  0
 37 42  1  0  0  0  0
 38 39  1  0  0  0  0
 38 75  1  0  0  0  0
 39 40  2  0  0  0  0
 39 76  1  0  0  0  0
 40 41  1  0  0  0  0
 40 77  1  0  0  0  0
 41 42  2  0  0  0  0
 41 78  1  0  0  0  0
 42 79  1  0  0  0  0
M  END
> <BIOSOLVEIT.HYDE_ESTIMATED_AFFINITY_LOWER_BOUNDARY [nM]>
40663812529.293121

> <BIOSOLVEIT.HYDE_ESTIMATED_AFFINITY_UPPER_BOUNDARY [nM]>
4040190198272.341309

> <BIOSOLVEIT.HYDE_LIGAND_EFFICIENCY range: ++, +, 0, -, -->
--

> <BIOSOLVEIT.HYDE_LIGAND_LIPOPHILIC_EFFICIENCY range: ++, +, 0, -, -->
--

> <BIOSOLVEIT.INTER_CLASH range: red, yellow, green>
green

> <BIOSOLVEIT.INTRA_CLASH range: red, yellow, green>
green

> <BIOSOLVEIT.LOGP>
4.2368

> <BIOSOLVEIT.MOLECULAR WEIGHT>
571.67

> <BIOSOLVEIT.MOLECULE_CHECKSUM>
MTQuODg1NDsw

> <BIOSOLVEIT.TORSION_QUALITY range: red, yellow, green, not rotatable>
red

> <BIOSOLVEIT.TPSA>
117.95

$$$$
G4.sdf
b8Hydescor01032215413D 1   1.00000     0.00000     0
Hydescorer 1.1.2 b8048283
 79 83  0  0  0  0            999 V2000
   25.8692  -43.6065  -13.5279 C   0  0  0  0  0  0  0  0  0  0  0  0
   26.5889  -42.6203  -12.9433 C   0  0  0  0  0  0  0  0  0  0  0  0
   25.8569  -41.4407  -13.0791 C   0  0  0  0  0  0  0  0  0  0  0  0
   24.7054  -41.7476  -13.7451 C   0  0  0  0  0  0  0  0  0  0  0  0
   24.7227  -43.0964  -14.0230 O   0  0  0  0  0  0  0  0  0  0  0  0
   23.5906  -40.8969  -14.1532 C   0  0  0  0  0  0  0  0  0  0  0  0
   22.5307  -41.4716  -14.7994 N   0  0  0  0  0  0  0  0  0  0  0  0
   23.5187  -39.6897  -13.9402 O   0  0  0  0  0  0  0  0  0  0  0  0
   21.3752  -40.6565  -15.2348 C   0  0  2  0  0  0  0  0  0  0  0  0
   20.3447  -40.6622  -14.0905 C   0  0  0  0  0  0  0  0  0  0  0  0
   20.7672  -41.3304  -16.4910 C   0  0  0  0  0  0  0  0  0  0  0  0
   19.4463  -40.6361  -16.9016 C   0  0  0  0  0  0  0  0  0  0  0  0
   18.7767  -41.2717  -18.1353 C   0  0  0  0  0  0  0  0  0  0  0  0
   17.4247  -40.6021  -18.4525 C   0  0  0  0  0  0  0  0  0  0  0  0
   17.3398  -39.1298  -18.0121 C   0  0  0  0  0  0  0  0  0  0  0  0
   18.7121  -38.4533  -18.1021 C   0  0  0  0  0  0  0  0  0  0  0  0
   19.7415  -39.1447  -17.1867 C   0  0  0  0  0  0  0  0  0  0  0  0
   19.9327  -41.8625  -13.6733 N   0  0  0  0  0  0  0  0  0  0  0  0
   19.8331  -39.6369  -13.6450 O   0  0  0  0  0  0  0  0  0  0  0  0
   18.9615  -42.0596  -12.6012 C   0  0  0  0  0  0  0  0  0  0  0  0
   17.5658  -41.8199  -13.1880 C   0  0  2  0  0  0  0  0  0  0  0  0
   16.8555  -40.6808  -12.4252 C   0  0  0  0  0  0  0  0  0  0  0  0
   15.5259  -40.5595  -13.0822 N   0  0  0  0  0  0  0  0  0  0  0  0
   14.7189  -41.8013  -12.9416 C   0  0  0  0  0  0  0  0  0  0  0  0
   15.5095  -42.9128  -13.6729 C   0  0  0  0  0  0  0  0  0  0  0  0
   16.7855  -43.0130  -13.0394 O   0  0  0  0  0  0  0  0  0  0  0  0
   15.3857  -39.7378  -14.1932 C   0  0  0  0  0  0  0  0  0  0  0  0
   15.2543  -40.2766  -15.2864 O   0  0  0  0  0  0  0  0  0  0  0  0
   15.3499  -38.2826  -14.0470 C   0  0  0  0  0  0  0  0  0  0  0  0
   14.3654  -37.6860  -13.2498 C   0  0  0  0  0  0  0  0  0  0  0  0
   14.3302  -36.3086  -13.0799 C   0  0  0  0  0  0  0  0  0  0  0  0
   15.2778  -35.4834  -13.7049 C   0  0  0  0  0  0  0  0  0  0  0  0
   16.2414  -36.0806  -14.5342 C   0  0  0  0  0  0  0  0  0  0  0  0
   16.2771  -37.4596  -14.7017 C   0  0  0  0  0  0  0  0  0  0  0  0
   15.2375  -34.0342  -13.5001 C   0  0  0  0  0  0  0  0  0  0  0  0
   14.9363  -33.3093  -14.4391 O   0  0  0  0  0  0  0  0  0  0  0  0
   15.5429  -33.4288  -12.2026 C   0  0  0  0  0  0  0  0  0  0  0  0
   15.0562  -32.1574  -11.8586 C   0  0  0  0  0  0  0  0  0  0  0  0
   15.3431  -31.6022  -10.6165 C   0  0  0  0  0  0  0  0  0  0  0  0
   16.1256  -32.3033   -9.7041 C   0  0  0  0  0  0  0  0  0  0  0  0
   16.6284  -33.5569  -10.0370 C   0  0  0  0  0  0  0  0  0  0  0  0
   16.3434  -34.1144  -11.2776 C   0  0  0  0  0  0  0  0  0  0  0  0
   26.1452  -44.5660  -13.5841 H   0  0  0  0  0  0  0  0  0  0  0  0
   27.4786  -42.7188  -12.4976 H   0  0  0  0  0  0  0  0  0  0  0  0
   26.1263  -40.5361  -12.7489 H   0  0  0  0  0  0  0  0  0  0  0  0
   22.5370  -42.4551  -14.9799 H   0  0  0  0  0  0  0  0  0  0  0  0
   21.6634  -39.7218  -15.4428 H   0  0  0  0  0  0  0  0  0  0  0  0
   20.5833  -42.2926  -16.2903 H   0  0  0  0  0  0  0  0  0  0  0  0
   21.4198  -41.2661  -17.2459 H   0  0  0  0  0  0  0  0  0  0  0  0
   18.8088  -40.6906  -16.1331 H   0  0  0  0  0  0  0  0  0  0  0  0
   18.6239  -42.2439  -17.9574 H   0  0  0  0  0  0  0  0  0  0  0  0
   19.3833  -41.1684  -18.9236 H   0  0  0  0  0  0  0  0  0  0  0  0
   16.7030  -41.1127  -17.9850 H   0  0  0  0  0  0  0  0  0  0  0  0
   17.2764  -40.6443  -19.4406 H   0  0  0  0  0  0  0  0  0  0  0  0
   17.0157  -39.0888  -17.0670 H   0  0  0  0  0  0  0  0  0  0  0  0
   16.6968  -38.6466  -18.6064 H   0  0  0  0  0  0  0  0  0  0  0  0
   18.6218  -37.4965  -17.8256 H   0  0  0  0  0  0  0  0  0  0  0  0
   19.0355  -38.4981  -19.0473 H   0  0  0  0  0  0  0  0  0  0  0  0
   20.6392  -39.0818  -17.6227 H   0  0  0  0  0  0  0  0  0  0  0  0
   19.7600  -38.6575  -16.3136 H   0  0  0  0  0  0  0  0  0  0  0  0
   20.3113  -42.6726  -14.1211 H   0  0  0  0  0  0  0  0  0  0  0  0
   19.1356  -41.4111  -11.8602 H   0  0  0  0  0  0  0  0  0  0  0  0
   19.0273  -42.9933  -12.2492 H   0  0  0  0  0  0  0  0  0  0  0  0
   17.6417  -41.5831  -14.1566 H   0  0  0  0  0  0  0  0  0  0  0  0
   17.3692  -39.8268  -12.5080 H   0  0  0  0  0  0  0  0  0  0  0  0
   16.7514  -40.9149  -11.4585 H   0  0  0  0  0  0  0  0  0  0  0  0
   13.8200  -41.6805  -13.3627 H   0  0  0  0  0  0  0  0  0  0  0  0
   14.6059  -42.0341  -11.9756 H   0  0  0  0  0  0  0  0  0  0  0  0
   15.6240  -42.6736  -14.6371 H   0  0  0  0  0  0  0  0  0  0  0  0
   15.0224  -43.7832  -13.6010 H   0  0  0  0  0  0  0  0  0  0  0  0
   13.6807  -38.2580  -12.7982 H   0  0  0  0  0  0  0  0  0  0  0  0
   13.6211  -35.8996  -12.5055 H   0  0  0  0  0  0  0  0  0  0  0  0
   16.9089  -35.5072  -15.0092 H   0  0  0  0  0  0  0  0  0  0  0  0
   16.9705  -37.8687  -15.2948 H   0  0  0  0  0  0  0  0  0  0  0  0
   14.4984  -31.6466  -12.5127 H   0  0  0  0  0  0  0  0  0  0  0  0
   14.9868  -30.6986  -10.3787 H   0  0  0  0  0  0  0  0  0  0  0  0
   16.3267  -31.9058   -8.8088 H   0  0  0  0  0  0  0  0  0  0  0  0
   17.1954  -34.0574   -9.3828 H   0  0  0  0  0  0  0  0  0  0  0  0
   16.7129  -35.0133  -11.5130 H   0  0  0  0  0  0  0  0  0  0  0  0
  1  2  2  0  0  0  0
  1  5  1  0  0  0  0
  1 43  1  0  0  0  0
  2  3  1  0  0  0  0
  2 44  1  0  0  0  0
  3  4  2  0  0  0  0
  3 45  1  0  0  0  0
  4  5  1  0  0  0  0
  4  6  1  0  0  0  0
  6  7  1  0  0  0  0
  6  8  2  0  0  0  0
  7  9  1  0  0  0  0
  7 46  1  0  0  0  0
  9 10  1  0  0  0  0
  9 11  1  0  0  0  0
  9 47  1  0  0  0  0
 10 18  1  0  0  0  0
 10 19  2  0  0  0  0
 11 12  1  0  0  0  0
 11 48  1  0  0  0  0
 11 49  1  0  0  0  0
 12 13  1  0  0  0  0
 12 17  1  0  0  0  0
 12 50  1  0  0  0  0
 13 14  1  0  0  0  0
 13 51  1  0  0  0  0
 13 52  1  0  0  0  0
 14 15  1  0  0  0  0
 14 53  1  0  0  0  0
 14 54  1  0  0  0  0
 15 16  1  0  0  0  0
 15 55  1  0  0  0  0
 15 56  1  0  0  0  0
 16 17  1  0  0  0  0
 16 57  1  0  0  0  0
 16 58  1  0  0  0  0
 17 59  1  0  0  0  0
 17 60  1  0  0  0  0
 18 20  1  0  0  0  0
 18 61  1  0  0  0  0
 20 21  1  0  0  0  0
 20 62  1  0  0  0  0
 20 63  1  0  0  0  0
 21 22  1  0  0  0  0
 21 26  1  0  0  0  0
 21 64  1  0  0  0  0
 22 23  1  0  0  0  0
 22 65  1  0  0  0  0
 22 66  1  0  0  0  0
 23 24  1  0  0  0  0
 23 27  1  0  0  0  0
 24 25  1  0  0  0  0
 24 67  1  0  0  0  0
 24 68  1  0  0  0  0
 25 26  1  0  0  0  0
 25 69  1  0  0  0  0
 25 70  1  0  0  0  0
 27 28  2  0  0  0  0
 27 29  1  0  0  0  0
 29 30  2  0  0  0  0
 29 34  1  0  0  0  0
 30 31  1  0  0  0  0
 30 71  1  0  0  0  0
 31 32  2  0  0  0  0
 31 72  1  0  0  0  0
 32 33  1  0  0  0  0
 32 35  1  0  0  0  0
 33 34  2  0  0  0  0
 33 73  1  0  0  0  0
 34 74  1  0  0  0  0
 35 36  2  0  0  0  0
 35 37  1  0  0  0  0
 37 38  2  0  0  0  0
 37 42  1  0  0  0  0
 38 39  1  0  0  0  0
 38 75  1  0  0  0  0
 39 40  2  0  0  0  0
 39 76  1  0  0  0  0
 40 41  1  0  0  0  0
 40 77  1  0  0  0  0
 41 42  2  0  0  0  0
 41 78  1  0  0  0  0
 42 79  1  0  0  0  0
M  END
> <BIOSOLVEIT.HYDE_ESTIMATED_AFFINITY_LOWER_BOUNDARY [nM]>
373868.070012

> <BIOSOLVEIT.HYDE_ESTIMATED_AFFINITY_UPPER_BOUNDARY [nM]>
37146003.238681

> <BIOSOLVEIT.HYDE_LIGAND_EFFICIENCY range: ++, +, 0, -, -->
--

> <BIOSOLVEIT.HYDE_LIGAND_LIPOPHILIC_EFFICIENCY range: ++, +, 0, -, -->
--

> <BIOSOLVEIT.INTER_CLASH range: red, yellow, green>
green

> <BIOSOLVEIT.INTRA_CLASH range: red, yellow, green>
green

> <BIOSOLVEIT.LOGP>
4.2368

> <BIOSOLVEIT.MOLECULAR WEIGHT>
571.67

> <BIOSOLVEIT.MOLECULE_CHECKSUM>
LTEzLjg2MzswLjMzMDA3

> <BIOSOLVEIT.TORSION_QUALITY range: red, yellow, green, not rotatable>
red

> <BIOSOLVEIT.TPSA>
117.95

$$$$
G4.sdf
b8Hydescor01032215413D 1   1.00000     0.00000     0
Hydescorer 1.1.2 b8048283
 79 83  0  0  0  0            999 V2000
   24.3192  -36.3474  -10.6229 C   0  0  0  0  0  0  0  0  0  0  0  0
   24.4509  -36.4700  -11.9644 C   0  0  0  0  0  0  0  0  0  0  0  0
   23.4426  -37.3297  -12.4001 C   0  0  0  0  0  0  0  0  0  0  0  0
   22.7220  -37.7051  -11.3032 C   0  0  0  0  0  0  0  0  0  0  0  0
   23.2760  -37.0917  -10.2014 O   0  0  0  0  0  0  0  0  0  0  0  0
   21.5660  -38.5897  -11.1853 C   0  0  0  0  0  0  0  0  0  0  0  0
   20.5416  -38.4516  -12.0813 N   0  0  0  0  0  0  0  0  0  0  0  0
   21.4479  -39.4766  -10.3442 O   0  0  0  0  0  0  0  0  0  0  0  0
   19.3469  -39.3215  -12.0077 C   0  0  2  0  0  0  0  0  0  0  0  0
   19.4577  -40.3602  -13.1393 C   0  0  0  0  0  0  0  0  0  0  0  0
   18.0987  -38.4313  -12.2337 C   0  0  0  0  0  0  0  0  0  0  0  0
   17.9705  -37.3707  -11.1138 C   0  0  0  0  0  0  0  0  0  0  0  0
   16.6043  -37.3923  -10.4015 C   0  0  0  0  0  0  0  0  0  0  0  0
   16.5561  -36.3792   -9.2405 C   0  0  0  0  0  0  0  0  0  0  0  0
   17.4746  -35.1601   -9.4383 C   0  0  0  0  0  0  0  0  0  0  0  0
   17.6003  -34.8072  -10.9245 C   0  0  0  0  0  0  0  0  0  0  0  0
   18.2081  -35.9720  -11.7302 C   0  0  0  0  0  0  0  0  0  0  0  0
   18.5491  -41.3394  -13.1324 N   0  0  0  0  0  0  0  0  0  0  0  0
   20.3835  -40.3729  -13.9481 O   0  0  0  0  0  0  0  0  0  0  0  0
   18.5012  -42.4087  -14.1254 C   0  0  0  0  0  0  0  0  0  0  0  0
   17.8216  -41.8481  -15.3798 C   0  0  2  0  0  0  0  0  0  0  0  0
   16.3036  -41.6968  -15.1409 C   0  0  0  0  0  0  0  0  0  0  0  0
   15.7725  -41.1592  -16.4227 N   0  0  0  0  0  0  0  0  0  0  0  0
   15.9840  -42.1022  -17.5535 C   0  0  0  0  0  0  0  0  0  0  0  0
   17.5166  -42.2569  -17.7032 C   0  0  0  0  0  0  0  0  0  0  0  0
   18.0149  -42.7645  -16.4648 O   0  0  0  0  0  0  0  0  0  0  0  0
   15.7525  -39.7861  -16.6311 C   0  0  0  0  0  0  0  0  0  0  0  0
   16.1508  -39.3689  -17.7128 O   0  0  0  0  0  0  0  0  0  0  0  0
   15.2285  -38.8819  -15.6073 C   0  0  0  0  0  0  0  0  0  0  0  0
   13.8833  -38.9645  -15.2268 C   0  0  0  0  0  0  0  0  0  0  0  0
   13.3740  -38.1313  -14.2400 C   0  0  0  0  0  0  0  0  0  0  0  0
   14.1939  -37.1863  -13.6041 C   0  0  0  0  0  0  0  0  0  0  0  0
   15.5332  -37.0797  -14.0137 C   0  0  0  0  0  0  0  0  0  0  0  0
   16.0426  -37.9157  -14.9999 C   0  0  0  0  0  0  0  0  0  0  0  0
   13.6452  -36.3280  -12.5525 C   0  0  0  0  0  0  0  0  0  0  0  0
   12.7686  -36.7700  -11.8217 O   0  0  0  0  0  0  0  0  0  0  0  0
   14.1193  -34.9582  -12.3479 C   0  0  0  0  0  0  0  0  0  0  0  0
   14.4399  -34.1279  -13.4339 C   0  0  0  0  0  0  0  0  0  0  0  0
   14.8753  -32.8242  -13.2235 C   0  0  0  0  0  0  0  0  0  0  0  0
   15.0047  -32.3336  -11.9277 C   0  0  0  0  0  0  0  0  0  0  0  0
   14.7064  -33.1496  -10.8415 C   0  0  0  0  0  0  0  0  0  0  0  0
   14.2711  -34.4531  -11.0486 C   0  0  0  0  0  0  0  0  0  0  0  0
   24.9053  -35.7905  -10.0344 H   0  0  0  0  0  0  0  0  0  0  0  0
   25.1417  -36.0271  -12.5361 H   0  0  0  0  0  0  0  0  0  0  0  0
   23.2778  -37.6183  -13.3433 H   0  0  0  0  0  0  0  0  0  0  0  0
   20.6008  -37.7539  -12.7951 H   0  0  0  0  0  0  0  0  0  0  0  0
   19.2976  -39.7756  -11.1181 H   0  0  0  0  0  0  0  0  0  0  0  0
   17.2811  -39.0071  -12.2351 H   0  0  0  0  0  0  0  0  0  0  0  0
   18.1817  -37.9680  -13.1161 H   0  0  0  0  0  0  0  0  0  0  0  0
   18.6838  -37.5415  -10.4340 H   0  0  0  0  0  0  0  0  0  0  0  0
   16.4414  -38.3100  -10.0390 H   0  0  0  0  0  0  0  0  0  0  0  0
   15.8897  -37.1634  -11.0625 H   0  0  0  0  0  0  0  0  0  0  0  0
   16.8317  -36.8483   -8.4014 H   0  0  0  0  0  0  0  0  0  0  0  0
   15.6156  -36.0527   -9.1462 H   0  0  0  0  0  0  0  0  0  0  0  0
   18.3816  -35.3708   -9.0738 H   0  0  0  0  0  0  0  0  0  0  0  0
   17.0913  -34.3779   -8.9471 H   0  0  0  0  0  0  0  0  0  0  0  0
   18.1886  -34.0041  -11.0194 H   0  0  0  0  0  0  0  0  0  0  0  0
   16.6919  -34.5997  -11.2874 H   0  0  0  0  0  0  0  0  0  0  0  0
   17.8062  -35.9617  -12.6458 H   0  0  0  0  0  0  0  0  0  0  0  0
   19.1948  -35.8238  -11.7976 H   0  0  0  0  0  0  0  0  0  0  0  0
   17.8625  -41.3402  -12.4055 H   0  0  0  0  0  0  0  0  0  0  0  0
   17.9753  -43.1811  -13.7693 H   0  0  0  0  0  0  0  0  0  0  0  0
   19.4287  -42.7104  -14.3463 H   0  0  0  0  0  0  0  0  0  0  0  0
   18.2182  -40.9600  -15.6118 H   0  0  0  0  0  0  0  0  0  0  0  0
   16.1263  -41.0599  -14.3907 H   0  0  0  0  0  0  0  0  0  0  0  0
   15.8895  -42.5825  -14.9312 H   0  0  0  0  0  0  0  0  0  0  0  0
   15.5891  -41.7306  -18.3937 H   0  0  0  0  0  0  0  0  0  0  0  0
   15.5641  -42.9868  -17.3507 H   0  0  0  0  0  0  0  0  0  0  0  0
   17.9324  -41.3694  -17.9014 H   0  0  0  0  0  0  0  0  0  0  0  0
   17.7254  -42.8956  -18.4437 H   0  0  0  0  0  0  0  0  0  0  0  0
   13.2835  -39.6305  -15.6703 H   0  0  0  0  0  0  0  0  0  0  0  0
   12.4114  -38.2053  -13.9793 H   0  0  0  0  0  0  0  0  0  0  0  0
   16.1266  -36.3947  -13.5911 H   0  0  0  0  0  0  0  0  0  0  0  0
   16.9987  -37.8272  -15.2789 H   0  0  0  0  0  0  0  0  0  0  0  0
   14.3543  -34.4772  -14.3670 H   0  0  0  0  0  0  0  0  0  0  0  0
   15.0956  -32.2389  -14.0037 H   0  0  0  0  0  0  0  0  0  0  0  0
   15.3122  -31.3940  -11.7774 H   0  0  0  0  0  0  0  0  0  0  0  0
   14.8053  -32.7979   -9.9106 H   0  0  0  0  0  0  0  0  0  0  0  0
   14.0641  -35.0365  -10.2633 H   0  0  0  0  0  0  0  0  0  0  0  0
  1  2  2  0  0  0  0
  1  5  1  0  0  0  0
  1 43  1  0  0  0  0
  2  3  1  0  0  0  0
  2 44  1  0  0  0  0
  3  4  2  0  0  0  0
  3 45  1  0  0  0  0
  4  5  1  0  0  0  0
  4  6  1  0  0  0  0
  6  7  1  0  0  0  0
  6  8  2  0  0  0  0
  7  9  1  0  0  0  0
  7 46  1  0  0  0  0
  9 10  1  0  0  0  0
  9 11  1  0  0  0  0
  9 47  1  0  0  0  0
 10 18  1  0  0  0  0
 10 19  2  0  0  0  0
 11 12  1  0  0  0  0
 11 48  1  0  0  0  0
 11 49  1  0  0  0  0
 12 13  1  0  0  0  0
 12 17  1  0  0  0  0
 12 50  1  0  0  0  0
 13 14  1  0  0  0  0
 13 51  1  0  0  0  0
 13 52  1  0  0  0  0
 14 15  1  0  0  0  0
 14 53  1  0  0  0  0
 14 54  1  0  0  0  0
 15 16  1  0  0  0  0
 15 55  1  0  0  0  0
 15 56  1  0  0  0  0
 16 17  1  0  0  0  0
 16 57  1  0  0  0  0
 16 58  1  0  0  0  0
 17 59  1  0  0  0  0
 17 60  1  0  0  0  0
 18 20  1  0  0  0  0
 18 61  1  0  0  0  0
 20 21  1  0  0  0  0
 20 62  1  0  0  0  0
 20 63  1  0  0  0  0
 21 22  1  0  0  0  0
 21 26  1  0  0  0  0
 21 64  1  0  0  0  0
 22 23  1  0  0  0  0
 22 65  1  0  0  0  0
 22 66  1  0  0  0  0
 23 24  1  0  0  0  0
 23 27  1  0  0  0  0
 24 25  1  0  0  0  0
 24 67  1  0  0  0  0
 24 68  1  0  0  0  0
 25 26  1  0  0  0  0
 25 69  1  0  0  0  0
 25 70  1  0  0  0  0
 27 28  2  0  0  0  0
 27 29  1  0  0  0  0
 29 30  2  0  0  0  0
 29 34  1  0  0  0  0
 30 31  1  0  0  0  0
 30 71  1  0  0  0  0
 31 32  2  0  0  0  0
 31 72  1  0  0  0  0
 32 33  1  0  0  0  0
 32 35  1  0  0  0  0
 33 34  2  0  0  0  0
 33 73  1  0  0  0  0
 34 74  1  0  0  0  0
 35 36  2  0  0  0  0
 35 37  1  0  0  0  0
 37 38  2  0  0  0  0
 37 42  1  0  0  0  0
 38 39  1  0  0  0  0
 38 75  1  0  0  0  0
 39 40  2  0  0  0  0
 39 76  1  0  0  0  0
 40 41  1  0  0  0  0
 40 77  1  0  0  0  0
 41 42  2  0  0  0  0
 41 78  1  0  0  0  0
 42 79  1  0  0  0  0
M  END
> <BIOSOLVEIT.HYDE_ESTIMATED_AFFINITY_LOWER_BOUNDARY [nM]>
16086838135.677870

> <BIOSOLVEIT.HYDE_ESTIMATED_AFFINITY_UPPER_BOUNDARY [nM]>
1598322481694.003174

> <BIOSOLVEIT.HYDE_LIGAND_EFFICIENCY range: ++, +, 0, -, -->
--

> <BIOSOLVEIT.HYDE_LIGAND_LIPOPHILIC_EFFICIENCY range: ++, +, 0, -, -->
--

> <BIOSOLVEIT.INTER_CLASH range: red, yellow, green>
green

> <BIOSOLVEIT.INTRA_CLASH range: red, yellow, green>
green

> <BIOSOLVEIT.LOGP>
4.2368

> <BIOSOLVEIT.MOLECULAR WEIGHT>
571.67

> <BIOSOLVEIT.MOLECULE_CHECKSUM>
MTIuNTg2NTsw

> <BIOSOLVEIT.TORSION_QUALITY range: red, yellow, green, not rotatable>
red

> <BIOSOLVEIT.TPSA>
117.95

$$$$
Z412133170.****
b8Hydescor01032215413D 1   1.00000     0.00000     0
Hydescorer 1.1.2 b8048283
 47 49  0  0  0  0            999 V2000
   14.1685  -36.7120  -11.2660 C   0  0  0  0  0  0  0  0  0  0  0  0
   13.4286  -37.4102  -12.0763 N   0  0  0  0  0  0  0  0  0  0  0  0
   13.8673  -38.7070  -12.2177 N   0  0  0  0  0  0  0  0  0  0  0  0
   14.9268  -38.9236  -11.4997 C   0  0  0  0  0  0  0  0  0  0  0  0
   15.4771  -37.5839  -10.5980 S   0  0  0  0  0  0  0  0  0  0  0  0
   13.9554  -35.2518  -10.8938 C   0  0  0  0  0  0  0  0  0  0  0  0
   14.6395  -34.9763   -9.5465 C   0  0  0  0  0  0  0  0  0  0  0  0
   14.5479  -34.3639  -11.9971 C   0  0  0  0  0  0  0  0  0  0  0  0
   15.5261  -40.1880  -11.5085 N   0  0  0  0  0  0  0  0  0  0  0  0
   16.5056  -40.6370  -12.3337 C   0  0  0  0  0  0  0  0  0  0  0  0
   16.8713  -41.9133  -12.0862 N   0  0  0  0  0  0  0  0  0  0  0  0
   17.0256  -39.9785  -13.2206 O   0  0  0  0  0  0  0  0  0  0  0  0
   17.9042  -42.5709  -12.8644 C   0  0  0  0  0  0  0  0  0  0  0  0
   19.1566  -42.3391  -12.0453 C   0  0  0  0  0  0  0  0  0  0  0  0
   19.6701  -43.3544  -11.2368 C   0  0  0  0  0  0  0  0  0  0  0  0
   20.8245  -43.1495  -10.4897 C   0  0  0  0  0  0  0  0  0  0  0  0
   21.4837  -41.9157  -10.5373 C   0  0  0  0  0  0  0  0  0  0  0  0
   20.9799  -40.9013  -11.3616 C   0  0  0  0  0  0  0  0  0  0  0  0
   19.8248  -41.1159  -12.1057 C   0  0  0  0  0  0  0  0  0  0  0  0
   22.6568  -41.7070   -9.7697 N   0  0  0  0  0  0  0  0  0  0  0  0
   23.6384  -42.7661   -9.5363 C   0  0  0  0  0  0  0  0  0  0  0  0
   24.6872  -42.0343   -8.7008 C   0  0  0  0  0  0  0  0  0  0  0  0
   24.7205  -40.6657   -9.3775 C   0  0  0  0  0  0  0  0  0  0  0  0
   23.2342  -40.3682   -9.5977 C   0  0  0  0  0  0  0  0  0  0  0  0
   12.9755  -35.0699  -10.8119 H   0  0  0  0  0  0  0  0  0  0  0  0
   14.5044  -34.0182   -9.2939 H   0  0  0  0  0  0  0  0  0  0  0  0
   14.2411  -35.5657   -8.8438 H   0  0  0  0  0  0  0  0  0  0  0  0
   15.6182  -35.1657   -9.6248 H   0  0  0  0  0  0  0  0  0  0  0  0
   14.4118  -33.4020  -11.7599 H   0  0  0  0  0  0  0  0  0  0  0  0
   15.5264  -34.5502  -12.0855 H   0  0  0  0  0  0  0  0  0  0  0  0
   14.0913  -34.5610  -12.8647 H   0  0  0  0  0  0  0  0  0  0  0  0
   15.1931  -40.8381  -10.8255 H   0  0  0  0  0  0  0  0  0  0  0  0
   16.4197  -42.4167  -11.3496 H   0  0  0  0  0  0  0  0  0  0  0  0
   17.9875  -42.1577  -13.7712 H   0  0  0  0  0  0  0  0  0  0  0  0
   17.7139  -43.5480  -12.9595 H   0  0  0  0  0  0  0  0  0  0  0  0
   19.2031  -44.2377  -11.1944 H   0  0  0  0  0  0  0  0  0  0  0  0
   21.1850  -43.8856   -9.9168 H   0  0  0  0  0  0  0  0  0  0  0  0
   21.4517  -40.0212  -11.4150 H   0  0  0  0  0  0  0  0  0  0  0  0
   19.4697  -40.3861  -12.6899 H   0  0  0  0  0  0  0  0  0  0  0  0
   24.0250  -43.1011  -10.3955 H   0  0  0  0  0  0  0  0  0  0  0  0
   23.2375  -43.5302   -9.0308 H   0  0  0  0  0  0  0  0  0  0  0  0
   25.5766  -42.4886   -8.7527 H   0  0  0  0  0  0  0  0  0  0  0  0
   24.4055  -41.9614   -7.7441 H   0  0  0  0  0  0  0  0  0  0  0  0
   25.2139  -40.7042  -10.2464 H   0  0  0  0  0  0  0  0  0  0  0  0
   25.1424  -39.9797   -8.7847 H   0  0  0  0  0  0  0  0  0  0  0  0
   22.8384  -39.9042   -8.8053 H   0  0  0  0  0  0  0  0  0  0  0  0
   23.0961  -39.8085  -10.4149 H   0  0  0  0  0  0  0  0  0  0  0  0
  1  2  2  0  0  0  0
  1  5  1  0  0  0  0
  1  6  1  0  0  0  0
  2  3  1  0  0  0  0
  3  4  2  0  0  0  0
  4  5  1  0  0  0  0
  4  9  1  0  0  0  0
  6  7  1  0  0  0  0
  6  8  1  0  0  0  0
  6 25  1  0  0  0  0
  7 26  1  0  0  0  0
  7 27  1  0  0  0  0
  7 28  1  0  0  0  0
  8 29  1  0  0  0  0
  8 30  1  0  0  0  0
  8 31  1  0  0  0  0
  9 10  1  0  0  0  0
  9 32  1  0  0  0  0
 10 11  1  0  0  0  0
 10 12  2  0  0  0  0
 11 13  1  0  0  0  0
 11 33  1  0  0  0  0
 13 14  1  0  0  0  0
 13 34  1  0  0  0  0
 13 35  1  0  0  0  0
 14 15  2  0  0  0  0
 14 19  1  0  0  0  0
 15 16  1  0  0  0  0
 15 36  1  0  0  0  0
 16 17  2  0  0  0  0
 16 37  1  0  0  0  0
 17 18  1  0  0  0  0
 17 20  1  0  0  0  0
 18 19  2  0  0  0  0
 18 38  1  0  0  0  0
 19 39  1  0  0  0  0
 20 21  1  0  0  0  0
 20 24  1  0  0  0  0
 21 22  1  0  0  0  0
 21 40  1  0  0  0  0
 21 41  1  0  0  0  0
 22 23  1  0  0  0  0
 22 42  1  0  0  0  0
 22 43  1  0  0  0  0
 23 24  1  0  0  0  0
 23 44  1  0  0  0  0
 23 45  1  0  0  0  0
 24 46  1  0  0  0  0
 24 47  1  0  0  0  0
M  END
> <BIOSOLVEIT.HYDE_ESTIMATED_AFFINITY_LOWER_BOUNDARY [nM]>
335613768.119994

> <BIOSOLVEIT.HYDE_ESTIMATED_AFFINITY_UPPER_BOUNDARY [nM]>
33345212168.358864

> <BIOSOLVEIT.HYDE_LIGAND_EFFICIENCY range: ++, +, 0, -, -->
--

> <BIOSOLVEIT.HYDE_LIGAND_LIPOPHILIC_EFFICIENCY range: ++, +, 0, -, -->
--

> <BIOSOLVEIT.INTER_CLASH range: red, yellow, green>
green

> <BIOSOLVEIT.INTRA_CLASH range: red, yellow, green>
green

> <BIOSOLVEIT.LOGP>
3.5834

> <BIOSOLVEIT.MOLECULAR WEIGHT>
345.468

> <BIOSOLVEIT.MOLECULE_CHECKSUM>
Mi45OTM0OTsw

> <BIOSOLVEIT.TORSION_QUALITY range: red, yellow, green, not rotatable>
green

> <BIOSOLVEIT.TPSA>
70.15

$$$$
Z412133170.****
b8Hydescor01032215413D 1   1.00000     0.00000     0
Hydescorer 1.1.2 b8048283
 47 49  0  0  0  0            999 V2000
   15.1373  -34.4972  -11.1672 C   0  0  0  0  0  0  0  0  0  0  0  0
   15.9909  -35.0262  -11.9935 N   0  0  0  0  0  0  0  0  0  0  0  0
   15.7653  -36.3665  -12.2103 N   0  0  0  0  0  0  0  0  0  0  0  0
   14.7425  -36.7850  -11.5292 C   0  0  0  0  0  0  0  0  0  0  0  0
   13.9723  -35.5982  -10.5759 S   0  0  0  0  0  0  0  0  0  0  0  0
   15.1090  -33.0430  -10.7194 C   0  0  0  0  0  0  0  0  0  0  0  0
   16.2485  -32.8085   -9.7167 C   0  0  0  0  0  0  0  0  0  0  0  0
   15.2710  -32.1387  -11.9493 C   0  0  0  0  0  0  0  0  0  0  0  0
   14.3511  -38.1256  -11.6156 N   0  0  0  0  0  0  0  0  0  0  0  0
   14.9872  -39.2110  -11.1063 C   0  0  0  0  0  0  0  0  0  0  0  0
   14.3504  -40.3741  -11.3621 N   0  0  0  0  0  0  0  0  0  0  0  0
   16.0315  -39.1738  -10.4750 O   0  0  0  0  0  0  0  0  0  0  0  0
   14.8762  -41.6445  -10.8991 C   0  0  0  0  0  0  0  0  0  0  0  0
   15.5328  -42.2204  -12.1362 C   0  0  0  0  0  0  0  0  0  0  0  0
   16.8236  -41.8311  -12.4974 C   0  0  0  0  0  0  0  0  0  0  0  0
   17.4341  -42.3635  -13.6273 C   0  0  0  0  0  0  0  0  0  0  0  0
   16.7553  -43.2957  -14.4205 C   0  0  0  0  0  0  0  0  0  0  0  0
   15.4664  -43.7008  -14.0500 C   0  0  0  0  0  0  0  0  0  0  0  0
   14.8643  -43.1632  -12.9177 C   0  0  0  0  0  0  0  0  0  0  0  0
   17.3771  -43.8323  -15.5756 N   0  0  0  0  0  0  0  0  0  0  0  0
   18.7567  -43.5123  -15.9421 C   0  0  0  0  0  0  0  0  0  0  0  0
   18.9381  -44.3432  -17.2111 C   0  0  0  0  0  0  0  0  0  0  0  0
   18.1895  -45.6244  -16.8505 C   0  0  0  0  0  0  0  0  0  0  0  0
   16.9202  -45.0896  -16.1802 C   0  0  0  0  0  0  0  0  0  0  0  0
   14.2331  -32.8487  -10.2777 H   0  0  0  0  0  0  0  0  0  0  0  0
   16.2376  -31.8546   -9.4168 H   0  0  0  0  0  0  0  0  0  0  0  0
   16.1253  -33.4080   -8.9258 H   0  0  0  0  0  0  0  0  0  0  0  0
   17.1246  -33.0102  -10.1546 H   0  0  0  0  0  0  0  0  0  0  0  0
   15.2534  -31.1807  -11.6633 H   0  0  0  0  0  0  0  0  0  0  0  0
   16.1432  -32.3372  -12.3965 H   0  0  0  0  0  0  0  0  0  0  0  0
   14.5218  -32.3092  -12.5894 H   0  0  0  0  0  0  0  0  0  0  0  0
   13.5016  -38.3053  -12.1116 H   0  0  0  0  0  0  0  0  0  0  0  0
   13.4967  -40.3593  -11.8827 H   0  0  0  0  0  0  0  0  0  0  0  0
   14.1412  -42.2394  -10.5736 H   0  0  0  0  0  0  0  0  0  0  0  0
   15.5451  -41.5105  -10.1679 H   0  0  0  0  0  0  0  0  0  0  0  0
   17.3141  -41.1630  -11.9379 H   0  0  0  0  0  0  0  0  0  0  0  0
   18.3606  -42.0797  -13.8740 H   0  0  0  0  0  0  0  0  0  0  0  0
   14.9785  -44.3779  -14.6009 H   0  0  0  0  0  0  0  0  0  0  0  0
   13.9430  -43.4553  -12.6609 H   0  0  0  0  0  0  0  0  0  0  0  0
   19.3983  -43.7922  -15.2279 H   0  0  0  0  0  0  0  0  0  0  0  0
   18.8682  -42.5358  -16.1262 H   0  0  0  0  0  0  0  0  0  0  0  0
   19.9044  -44.5245  -17.3933 H   0  0  0  0  0  0  0  0  0  0  0  0
   18.5282  -43.8922  -18.0040 H   0  0  0  0  0  0  0  0  0  0  0  0
   18.7215  -46.1882  -16.2189 H   0  0  0  0  0  0  0  0  0  0  0  0
   17.9696  -46.1566  -17.6680 H   0  0  0  0  0  0  0  0  0  0  0  0
   16.1994  -44.9246  -16.8533 H   0  0  0  0  0  0  0  0  0  0  0  0
   16.5863  -45.7241  -15.4830 H   0  0  0  0  0  0  0  0  0  0  0  0
  1  2  2  0  0  0  0
  1  5  1  0  0  0  0
  1  6  1  0  0  0  0
  2  3  1  0  0  0  0
  3  4  2  0  0  0  0
  4  5  1  0  0  0  0
  4  9  1  0  0  0  0
  6  7  1  0  0  0  0
  6  8  1  0  0  0  0
  6 25  1  0  0  0  0
  7 26  1  0  0  0  0
  7 27  1  0  0  0  0
  7 28  1  0  0  0  0
  8 29  1  0  0  0  0
  8 30  1  0  0  0  0
  8 31  1  0  0  0  0
  9 10  1  0  0  0  0
  9 32  1  0  0  0  0
 10 11  1  0  0  0  0
 10 12  2  0  0  0  0
 11 13  1  0  0  0  0
 11 33  1  0  0  0  0
 13 14  1  0  0  0  0
 13 34  1  0  0  0  0
 13 35  1  0  0  0  0
 14 15  2  0  0  0  0
 14 19  1  0  0  0  0
 15 16  1  0  0  0  0
 15 36  1  0  0  0  0
 16 17  2  0  0  0  0
 16 37  1  0  0  0  0
 17 18  1  0  0  0  0
 17 20  1  0  0  0  0
 18 19  2  0  0  0  0
 18 38  1  0  0  0  0
 19 39  1  0  0  0  0
 20 21  1  0  0  0  0
 20 24  1  0  0  0  0
 21 22  1  0  0  0  0
 21 40  1  0  0  0  0
 21 41  1  0  0  0  0
 22 23  1  0  0  0  0
 22 42  1  0  0  0  0
 22 43  1  0  0  0  0
 23 24  1  0  0  0  0
 23 44  1  0  0  0  0
 23 45  1  0  0  0  0
 24 46  1  0  0  0  0
 24 47  1  0  0  0  0
M  END
> <BIOSOLVEIT.HYDE_ESTIMATED_AFFINITY_LOWER_BOUNDARY [nM]>
1709962.379364

> <BIOSOLVEIT.HYDE_ESTIMATED_AFFINITY_UPPER_BOUNDARY [nM]>
169894872.487486

> <BIOSOLVEIT.HYDE_LIGAND_EFFICIENCY range: ++, +, 0, -, -->
--

> <BIOSOLVEIT.HYDE_LIGAND_LIPOPHILIC_EFFICIENCY range: ++, +, 0, -, -->
--

> <BIOSOLVEIT.INTER_CLASH range: red, yellow, green>
green

> <BIOSOLVEIT.INTRA_CLASH range: red, yellow, green>
green

> <BIOSOLVEIT.LOGP>
3.5834

> <BIOSOLVEIT.MOLECULAR WEIGHT>
345.468

> <BIOSOLVEIT.MOLECULE_CHECKSUM>
LTEwLjA5NDE7MC40MjA1ODk=

> <BIOSOLVEIT.TORSION_QUALITY range: red, yellow, green, not rotatable>
green

> <BIOSOLVEIT.TPSA>
70.15

$$$$
Z412133170.****
b8Hydescor01032215413D 1   1.00000     0.00000     0
Hydescorer 1.1.2 b8048283
 47 49  0  0  0  0            999 V2000
   15.2245  -32.2417  -11.8012 C   0  0  0  0  0  0  0  0  0  0  0  0
   15.0657  -32.1532  -13.0889 N   0  0  0  0  0  0  0  0  0  0  0  0
   14.3436  -33.2016  -13.6120 N   0  0  0  0  0  0  0  0  0  0  0  0
   13.9910  -34.0367  -12.6828 C   0  0  0  0  0  0  0  0  0  0  0  0
   14.5001  -33.6248  -11.1075 S   0  0  0  0  0  0  0  0  0  0  0  0
   15.9702  -31.2487  -10.9214 C   0  0  0  0  0  0  0  0  0  0  0  0
   16.3757  -31.9472   -9.6149 C   0  0  0  0  0  0  0  0  0  0  0  0
   17.2081  -30.7445  -11.6764 C   0  0  0  0  0  0  0  0  0  0  0  0
   13.2467  -35.1737  -13.0159 N   0  0  0  0  0  0  0  0  0  0  0  0
   13.2632  -36.3856  -12.4049 C   0  0  0  0  0  0  0  0  0  0  0  0
   12.4244  -37.2812  -12.9689 N   0  0  0  0  0  0  0  0  0  0  0  0
   13.9550  -36.6698  -11.4399 O   0  0  0  0  0  0  0  0  0  0  0  0
   12.3016  -38.6329  -12.4559 C   0  0  0  0  0  0  0  0  0  0  0  0
   13.4460  -39.3639  -13.1260 C   0  0  0  0  0  0  0  0  0  0  0  0
   13.8913  -38.9724  -14.3896 C   0  0  0  0  0  0  0  0  0  0  0  0
   14.9473  -39.6348  -15.0053 C   0  0  0  0  0  0  0  0  0  0  0  0
   15.5741  -40.7089  -14.3634 C   0  0  0  0  0  0  0  0  0  0  0  0
   15.1402  -41.0923  -13.0877 C   0  0  0  0  0  0  0  0  0  0  0  0
   14.0835  -40.4233  -12.4796 C   0  0  0  0  0  0  0  0  0  0  0  0
   16.6462  -41.3869  -14.9958 N   0  0  0  0  0  0  0  0  0  0  0  0
   17.5568  -42.2667  -14.2634 C   0  0  0  0  0  0  0  0  0  0  0  0
   18.4821  -42.7488  -15.3793 C   0  0  0  0  0  0  0  0  0  0  0  0
   17.5007  -42.9360  -16.5342 C   0  0  0  0  0  0  0  0  0  0  0  0
   16.6269  -41.6820  -16.4337 C   0  0  0  0  0  0  0  0  0  0  0  0
   15.3713  -30.4757  -10.7123 H   0  0  0  0  0  0  0  0  0  0  0  0
   16.8668  -31.3014   -9.0302 H   0  0  0  0  0  0  0  0  0  0  0  0
   15.5563  -32.2695   -9.1410 H   0  0  0  0  0  0  0  0  0  0  0  0
   16.9682  -32.7255   -9.8230 H   0  0  0  0  0  0  0  0  0  0  0  0
   17.7040  -30.0910  -11.1047 H   0  0  0  0  0  0  0  0  0  0  0  0
   17.8043  -31.5176  -11.8930 H   0  0  0  0  0  0  0  0  0  0  0  0
   16.9223  -30.2965  -12.5236 H   0  0  0  0  0  0  0  0  0  0  0  0
   12.6291  -35.0826  -13.7971 H   0  0  0  0  0  0  0  0  0  0  0  0
   11.8753  -37.0065  -13.7582 H   0  0  0  0  0  0  0  0  0  0  0  0
   11.4218  -39.0343  -12.7105 H   0  0  0  0  0  0  0  0  0  0  0  0
   12.3999  -38.6489  -11.4608 H   0  0  0  0  0  0  0  0  0  0  0  0
   13.4465  -38.2081  -14.8565 H   0  0  0  0  0  0  0  0  0  0  0  0
   15.2597  -39.3430  -15.9093 H   0  0  0  0  0  0  0  0  0  0  0  0
   15.5911  -41.8485  -12.6136 H   0  0  0  0  0  0  0  0  0  0  0  0
   13.7776  -40.7043  -11.5699 H   0  0  0  0  0  0  0  0  0  0  0  0
   17.0666  -43.0291  -13.8410 H   0  0  0  0  0  0  0  0  0  0  0  0
   18.0624  -41.7655  -13.5611 H   0  0  0  0  0  0  0  0  0  0  0  0
   18.9282  -43.6102  -15.1365 H   0  0  0  0  0  0  0  0  0  0  0  0
   19.1769  -42.0639  -15.5984 H   0  0  0  0  0  0  0  0  0  0  0  0
   16.9563  -43.7662  -16.4148 H   0  0  0  0  0  0  0  0  0  0  0  0
   17.9786  -42.9740  -17.4118 H   0  0  0  0  0  0  0  0  0  0  0  0
   17.0172  -40.9277  -16.9616 H   0  0  0  0  0  0  0  0  0  0  0  0
   15.6965  -41.8649  -16.7514 H   0  0  0  0  0  0  0  0  0  0  0  0
  1  2  2  0  0  0  0
  1  5  1  0  0  0  0
  1  6  1  0  0  0  0
  2  3  1  0  0  0  0
  3  4  2  0  0  0  0
  4  5  1  0  0  0  0
  4  9  1  0  0  0  0
  6  7  1  0  0  0  0
  6  8  1  0  0  0  0
  6 25  1  0  0  0  0
  7 26  1  0  0  0  0
  7 27  1  0  0  0  0
  7 28  1  0  0  0  0
  8 29  1  0  0  0  0
  8 30  1  0  0  0  0
  8 31  1  0  0  0  0
  9 10  1  0  0  0  0
  9 32  1  0  0  0  0
 10 11  1  0  0  0  0
 10 12  2  0  0  0  0
 11 13  1  0  0  0  0
 11 33  1  0  0  0  0
 13 14  1  0  0  0  0
 13 34  1  0  0  0  0
 13 35  1  0  0  0  0
 14 15  2  0  0  0  0
 14 19  1  0  0  0  0
 15 16  1  0  0  0  0
 15 36  1  0  0  0  0
 16 17  2  0  0  0  0
 16 37  1  0  0  0  0
 17 18  1  0  0  0  0
 17 20  1  0  0  0  0
 18 19  2  0  0  0  0
 18 38  1  0  0  0  0
 19 39  1  0  0  0  0
 20 21  1  0  0  0  0
 20 24  1  0  0  0  0
 21 22  1  0  0  0  0
 21 40  1  0  0  0  0
 21 41  1  0  0  0  0
 22 23  1  0  0  0  0
 22 42  1  0  0  0  0
 22 43  1  0  0  0  0
 23 24  1  0  0  0  0
 23 44  1  0  0  0  0
 23 45  1  0  0  0  0
 24 46  1  0  0  0  0
 24 47  1  0  0  0  0
M  END
> <BIOSOLVEIT.HYDE_ESTIMATED_AFFINITY_LOWER_BOUNDARY [nM]>
12249283986.028978

> <BIOSOLVEIT.HYDE_ESTIMATED_AFFINITY_UPPER_BOUNDARY [nM]>
1217038787510.585205

> <BIOSOLVEIT.HYDE_LIGAND_EFFICIENCY range: ++, +, 0, -, -->
--

> <BIOSOLVEIT.HYDE_LIGAND_LIPOPHILIC_EFFICIENCY range: ++, +, 0, -, -->
--

> <BIOSOLVEIT.INTER_CLASH range: red, yellow, green>
green

> <BIOSOLVEIT.INTRA_CLASH range: red, yellow, green>
green

> <BIOSOLVEIT.LOGP>
3.5834

> <BIOSOLVEIT.MOLECULAR WEIGHT>
345.468

> <BIOSOLVEIT.MOLECULE_CHECKSUM>
MTEuOTEwOTsw

> <BIOSOLVEIT.TORSION_QUALITY range: red, yellow, green, not rotatable>
green

> <BIOSOLVEIT.TPSA>
70.15

$$$$
Z316554572.****
b8Hydescor01032215413D 1   1.00000     0.00000     0
Hydescorer 1.1.2 b8048283
 39 40  0  0  0  0            999 V2000
   17.2191  -40.8339  -12.5961 C   0  0  0  0  0  0  0  0  0  0  0  0
   16.7936  -41.7766  -13.5261 C   0  0  0  0  0  0  0  0  0  0  0  0
   17.0662  -41.5951  -14.8772 C   0  0  0  0  0  0  0  0  0  0  0  0
   17.7647  -40.4680  -15.2983 C   0  0  0  0  0  0  0  0  0  0  0  0
   18.1902  -39.5246  -14.3690 C   0  0  0  0  0  0  0  0  0  0  0  0
   17.9223  -39.7030  -13.0118 C   0  0  0  0  0  0  0  0  0  0  0  0
   18.4115  -38.6813  -11.9946 C   0  0  0  0  0  0  0  0  0  0  0  0
   17.3117  -37.6601  -11.7691 C   0  0  0  0  0  0  0  0  0  0  0  0
   17.4718  -36.7595  -10.7434 N   0  0  0  0  0  0  0  0  0  0  0  0
   16.3019  -37.6585  -12.4438 O   0  0  0  0  0  0  0  0  0  0  0  0
   16.5859  -35.7281  -10.3512 C   0  0  0  0  0  0  0  0  0  0  0  0
   15.2478  -36.0734  -10.1467 C   0  0  0  0  0  0  0  0  0  0  0  0
   14.3353  -35.0941   -9.7578 C   0  0  0  0  0  0  0  0  0  0  0  0
   14.7534  -33.7778   -9.5758 C   0  0  0  0  0  0  0  0  0  0  0  0
   16.0946  -33.4507   -9.7839 C   0  0  0  0  0  0  0  0  0  0  0  0
   17.0248  -34.4193  -10.1507 C   0  0  0  0  0  0  0  0  0  0  0  0
   16.4939  -32.1140   -9.5954 N   0  0  0  0  0  0  0  0  0  0  0  0
   16.6721  -31.1619  -10.5510 C   0  0  0  0  0  0  0  0  0  0  0  0
   17.1085  -29.7391  -10.2341 C   0  0  0  0  0  0  0  0  0  0  0  0
   16.4988  -31.5409  -11.6879 O   0  0  0  0  0  0  0  0  0  0  0  0
   18.0375  -29.2609  -11.3711 C   0  0  0  0  0  0  0  0  0  0  0  0
   17.0202  -40.9675  -11.6252 H   0  0  0  0  0  0  0  0  0  0  0  0
   16.2908  -42.5859  -13.2225 H   0  0  0  0  0  0  0  0  0  0  0  0
   16.7607  -42.2736  -15.5453 H   0  0  0  0  0  0  0  0  0  0  0  0
   17.9609  -40.3361  -16.2700 H   0  0  0  0  0  0  0  0  0  0  0  0
   18.6905  -38.7147  -14.6753 H   0  0  0  0  0  0  0  0  0  0  0  0
   19.2298  -38.2241  -12.3428 H   0  0  0  0  0  0  0  0  0  0  0  0
   18.6272  -39.1402  -11.1327 H   0  0  0  0  0  0  0  0  0  0  0  0
   18.3143  -36.8430  -10.2111 H   0  0  0  0  0  0  0  0  0  0  0  0
   14.9463  -37.0177  -10.2786 H   0  0  0  0  0  0  0  0  0  0  0  0
   13.3768  -35.3373   -9.6088 H   0  0  0  0  0  0  0  0  0  0  0  0
   14.0993  -33.0740   -9.2988 H   0  0  0  0  0  0  0  0  0  0  0  0
   17.9890  -34.1814  -10.2681 H   0  0  0  0  0  0  0  0  0  0  0  0
   16.6663  -31.8320   -8.6516 H   0  0  0  0  0  0  0  0  0  0  0  0
   17.6003  -29.7209   -9.3637 H   0  0  0  0  0  0  0  0  0  0  0  0
   16.3075  -29.1431  -10.1769 H   0  0  0  0  0  0  0  0  0  0  0  0
   18.3382  -28.3256  -11.1848 H   0  0  0  0  0  0  0  0  0  0  0  0
   18.8343  -29.8626  -11.4259 H   0  0  0  0  0  0  0  0  0  0  0  0
   17.5415  -29.2849  -12.2391 H   0  0  0  0  0  0  0  0  0  0  0  0
  1  2  2  0  0  0  0
  1  6  1  0  0  0  0
  1 22  1  0  0  0  0
  2  3  1  0  0  0  0
  2 23  1  0  0  0  0
  3  4  2  0  0  0  0
  3 24  1  0  0  0  0
  4  5  1  0  0  0  0
  4 25  1  0  0  0  0
  5  6  2  0  0  0  0
  5 26  1  0  0  0  0
  6  7  1  0  0  0  0
  7  8  1  0  0  0  0
  7 27  1  0  0  0  0
  7 28  1  0  0  0  0
  8  9  1  0  0  0  0
  8 10  2  0  0  0  0
  9 11  1  0  0  0  0
  9 29  1  0  0  0  0
 11 12  2  0  0  0  0
 11 16  1  0  0  0  0
 12 13  1  0  0  0  0
 12 30  1  0  0  0  0
 13 14  2  0  0  0  0
 13 31  1  0  0  0  0
 14 15  1  0  0  0  0
 14 32  1  0  0  0  0
 15 16  2  0  0  0  0
 15 17  1  0  0  0  0
 16 33  1  0  0  0  0
 17 18  1  0  0  0  0
 17 34  1  0  0  0  0
 18 19  1  0  0  0  0
 18 20  2  0  0  0  0
 19 21  1  0  0  0  0
 19 35  1  0  0  0  0
 19 36  1  0  0  0  0
 21 37  1  0  0  0  0
 21 38  1  0  0  0  0
 21 39  1  0  0  0  0
M  END
> <BIOSOLVEIT.HYDE_ESTIMATED_AFFINITY_LOWER_BOUNDARY [nM]>
2978625.122428

> <BIOSOLVEIT.HYDE_ESTIMATED_AFFINITY_UPPER_BOUNDARY [nM]>
295944016.938704

> <BIOSOLVEIT.HYDE_LIGAND_EFFICIENCY range: ++, +, 0, -, -->
--

> <BIOSOLVEIT.HYDE_LIGAND_LIPOPHILIC_EFFICIENCY range: ++, +, 0, -, -->
--

> <BIOSOLVEIT.INTER_CLASH range: red, yellow, green>
green

> <BIOSOLVEIT.INTRA_CLASH range: red, yellow, green>
green

> <BIOSOLVEIT.LOGP>
3.2163

> <BIOSOLVEIT.MOLECULAR WEIGHT>
282.341

> <BIOSOLVEIT.MOLECULE_CHECKSUM>
LTguNzE4MzQ7MC40MTUxNTk=

> <BIOSOLVEIT.TORSION_QUALITY range: red, yellow, green, not rotatable>
yellow

> <BIOSOLVEIT.TPSA>
58.2

$$$$
G1.sdf
b8Hydescor01032215413D 1   1.00000     0.00000     0
Hydescorer 1.1.2 b8048283
 69 72  0  0  0  0            999 V2000
   15.3018  -32.0138  -11.7642 C   0  0  0  0  0  0  0  0  0  0  0  0
   16.2641  -32.5469  -10.9755 C   0  0  0  0  0  0  0  0  0  0  0  0
   16.8710  -33.5710  -11.7031 C   0  0  0  0  0  0  0  0  0  0  0  0
   16.2530  -33.6296  -12.9191 C   0  0  0  0  0  0  0  0  0  0  0  0
   15.2797  -32.6584  -12.9495 O   0  0  0  0  0  0  0  0  0  0  0  0
   16.4807  -34.5104  -14.0600 C   0  0  0  0  0  0  0  0  0  0  0  0
   17.3859  -35.5268  -13.9410 N   0  0  0  0  0  0  0  0  0  0  0  0
   15.8856  -34.4264  -15.1342 O   0  0  0  0  0  0  0  0  0  0  0  0
   17.6626  -36.4568  -15.0649 C   0  0  2  0  0  0  0  0  0  0  0  0
   16.6301  -37.5998  -15.0042 C   0  0  0  0  0  0  0  0  0  0  0  0
   19.0911  -37.0228  -14.8589 C   0  0  0  0  0  0  0  0  0  0  0  0
   19.1832  -37.8358  -13.5457 C   0  0  0  0  0  0  0  0  0  0  0  0
   19.3090  -39.3265  -13.9144 C   0  0  0  0  0  0  0  0  0  0  0  0
   19.4263  -40.2109  -12.6656 C   0  0  0  0  0  0  0  0  0  0  0  0
   20.6213  -39.7817  -11.8047 C   0  0  0  0  0  0  0  0  0  0  0  0
   20.5062  -38.3009  -11.4215 C   0  0  0  0  0  0  0  0  0  0  0  0
   20.3797  -37.4126  -12.6677 C   0  0  0  0  0  0  0  0  0  0  0  0
   16.2160  -38.0821  -16.1821 N   0  0  0  0  0  0  0  0  0  0  0  0
   16.0959  -37.9804  -13.9613 O   0  0  0  0  0  0  0  0  0  0  0  0
   15.2406  -39.1652  -16.3006 C   0  0  0  0  0  0  0  0  0  0  0  0
   15.9991  -40.5047  -16.2508 C   0  0  2  0  0  0  0  0  0  0  0  0
   15.6319  -41.2626  -14.9568 C   0  0  0  0  0  0  0  0  0  0  0  0
   16.1939  -42.6133  -15.1520 N   0  0  0  0  0  0  0  0  0  0  0  0
   17.6718  -42.5521  -15.2800 C   0  0  0  0  0  0  0  0  0  0  0  0
   18.0330  -41.6343  -16.4789 C   0  0  0  0  0  0  0  0  0  0  0  0
   17.4165  -40.3570  -16.2752 O   0  0  0  0  0  0  0  0  0  0  0  0
   15.5899  -43.8674  -14.2640 S   0  0  0  0  0  0  0  0  0  0  0  0
   16.8914  -44.3516  -13.0990 C   0  0  0  0  0  0  0  0  0  0  0  0
   14.4737  -43.3998  -13.5225 O   0  0  0  0  0  0  0  0  0  0  0  0
   15.3496  -44.9546  -15.1466 O   0  0  0  0  0  0  0  0  0  0  0  0
   17.2649  -43.5511  -12.0043 C   0  0  0  0  0  0  0  0  0  0  0  0
   18.2730  -43.9933  -11.1400 C   0  0  0  0  0  0  0  0  0  0  0  0
   18.9141  -45.2050  -11.3551 C   0  0  0  0  0  0  0  0  0  0  0  0
   18.5563  -45.9926  -12.4396 C   0  0  0  0  0  0  0  0  0  0  0  0
   17.5530  -45.5682  -13.3033 C   0  0  0  0  0  0  0  0  0  0  0  0
   16.6675  -42.2649  -11.7418 C   0  0  0  0  0  0  0  0  0  0  0  0
   16.2388  -41.2302  -11.5088 N   0  0  0  0  0  0  0  0  0  0  0  0
   14.6995  -31.2579  -11.5077 H   0  0  0  0  0  0  0  0  0  0  0  0
   16.4964  -32.2606  -10.0460 H   0  0  0  0  0  0  0  0  0  0  0  0
   17.6208  -34.1546  -11.3914 H   0  0  0  0  0  0  0  0  0  0  0  0
   17.8737  -35.6472  -13.0764 H   0  0  0  0  0  0  0  0  0  0  0  0
   17.6003  -35.9760  -15.9395 H   0  0  0  0  0  0  0  0  0  0  0  0
   19.7408  -36.2636  -14.8193 H   0  0  0  0  0  0  0  0  0  0  0  0
   19.3207  -37.6183  -15.6287 H   0  0  0  0  0  0  0  0  0  0  0  0
   18.3396  -37.7032  -13.0254 H   0  0  0  0  0  0  0  0  0  0  0  0
   20.1245  -39.4532  -14.4792 H   0  0  0  0  0  0  0  0  0  0  0  0
   18.4990  -39.6020  -14.4320 H   0  0  0  0  0  0  0  0  0  0  0  0
   19.5504  -41.1621  -12.9479 H   0  0  0  0  0  0  0  0  0  0  0  0
   18.5880  -40.1298  -12.1266 H   0  0  0  0  0  0  0  0  0  0  0  0
   21.4660  -39.9228  -12.3210 H   0  0  0  0  0  0  0  0  0  0  0  0
   20.6428  -40.3357  -10.9725 H   0  0  0  0  0  0  0  0  0  0  0  0
   21.3227  -38.0318  -10.9107 H   0  0  0  0  0  0  0  0  0  0  0  0
   19.6972  -38.1745  -10.8475 H   0  0  0  0  0  0  0  0  0  0  0  0
   20.2510  -36.4640  -12.3787 H   0  0  0  0  0  0  0  0  0  0  0  0
   21.2195  -37.4863  -13.2056 H   0  0  0  0  0  0  0  0  0  0  0  0
   16.5907  -37.6836  -17.0193 H   0  0  0  0  0  0  0  0  0  0  0  0
   14.7507  -39.0860  -17.1687 H   0  0  0  0  0  0  0  0  0  0  0  0
   14.5884  -39.1174  -15.5441 H   0  0  0  0  0  0  0  0  0  0  0  0
   15.7217  -41.0587  -17.0356 H   0  0  0  0  0  0  0  0  0  0  0  0
   14.6395  -41.3053  -14.8410 H   0  0  0  0  0  0  0  0  0  0  0  0
   16.0418  -40.8204  -14.1591 H   0  0  0  0  0  0  0  0  0  0  0  0
   18.0336  -43.4707  -15.4391 H   0  0  0  0  0  0  0  0  0  0  0  0
   18.0667  -42.1791  -14.4403 H   0  0  0  0  0  0  0  0  0  0  0  0
   17.6954  -42.0402  -17.3282 H   0  0  0  0  0  0  0  0  0  0  0  0
   19.0255  -41.5251  -16.5331 H   0  0  0  0  0  0  0  0  0  0  0  0
   18.5348  -43.4286  -10.3573 H   0  0  0  0  0  0  0  0  0  0  0  0
   19.6324  -45.5098  -10.7298 H   0  0  0  0  0  0  0  0  0  0  0  0
   19.0193  -46.8644  -12.5998 H   0  0  0  0  0  0  0  0  0  0  0  0
   17.3000  -46.1411  -14.0828 H   0  0  0  0  0  0  0  0  0  0  0  0
  1  2  2  0  0  0  0
  1  5  1  0  0  0  0
  1 38  1  0  0  0  0
  2  3  1  0  0  0  0
  2 39  1  0  0  0  0
  3  4  2  0  0  0  0
  3 40  1  0  0  0  0
  4  5  1  0  0  0  0
  4  6  1  0  0  0  0
  6  7  1  0  0  0  0
  6  8  2  0  0  0  0
  7  9  1  0  0  0  0
  7 41  1  0  0  0  0
  9 10  1  0  0  0  0
  9 11  1  0  0  0  0
  9 42  1  0  0  0  0
 10 18  1  0  0  0  0
 10 19  2  0  0  0  0
 11 12  1  0  0  0  0
 11 43  1  0  0  0  0
 11 44  1  0  0  0  0
 12 13  1  0  0  0  0
 12 17  1  0  0  0  0
 12 45  1  0  0  0  0
 13 14  1  0  0  0  0
 13 46  1  0  0  0  0
 13 47  1  0  0  0  0
 14 15  1  0  0  0  0
 14 48  1  0  0  0  0
 14 49  1  0  0  0  0
 15 16  1  0  0  0  0
 15 50  1  0  0  0  0
 15 51  1  0  0  0  0
 16 17  1  0  0  0  0
 16 52  1  0  0  0  0
 16 53  1  0  0  0  0
 17 54  1  0  0  0  0
 17 55  1  0  0  0  0
 18 20  1  0  0  0  0
 18 56  1  0  0  0  0
 20 21  1  0  0  0  0
 20 57  1  0  0  0  0
 20 58  1  0  0  0  0
 21 22  1  0  0  0  0
 21 26  1  0  0  0  0
 21 59  1  0  0  0  0
 22 23  1  0  0  0  0
 22 60  1  0  0  0  0
 22 61  1  0  0  0  0
 23 24  1  0  0  0  0
 23 27  1  0  0  0  0
 24 25  1  0  0  0  0
 24 62  1  0  0  0  0
 24 63  1  0  0  0  0
 25 26  1  0  0  0  0
 25 64  1  0  0  0  0
 25 65  1  0  0  0  0
 27 28  1  0  0  0  0
 27 29  2  0  0  0  0
 27 30  2  0  0  0  0
 28 31  2  0  0  0  0
 28 35  1  0  0  0  0
 31 32  1  0  0  0  0
 31 36  1  0  0  0  0
 32 33  2  0  0  0  0
 32 66  1  0  0  0  0
 33 34  1  0  0  0  0
 33 67  1  0  0  0  0
 34 35  2  0  0  0  0
 34 68  1  0  0  0  0
 35 69  1  0  0  0  0
 36 37  3  0  0  0  0
M  END
> <BIOSOLVEIT.HYDE_ESTIMATED_AFFINITY_LOWER_BOUNDARY [nM]>
187249.190533

> <BIOSOLVEIT.HYDE_ESTIMATED_AFFINITY_UPPER_BOUNDARY [nM]>
18604314.184240

> <BIOSOLVEIT.HYDE_LIGAND_EFFICIENCY range: ++, +, 0, -, -->
--

> <BIOSOLVEIT.HYDE_LIGAND_LIPOPHILIC_EFFICIENCY range: ++, +, 0, -, -->
--

> <BIOSOLVEIT.INTER_CLASH range: red, yellow, green>
green

> <BIOSOLVEIT.INTRA_CLASH range: red, yellow, green>
green

> <BIOSOLVEIT.LOGP>
3.07658

> <BIOSOLVEIT.MOLECULAR WEIGHT>
528.626

> <BIOSOLVEIT.MOLECULE_CHECKSUM>
LTE1LjU3NzE7MC40MjEwMDI=

> <BIOSOLVEIT.TORSION_QUALITY range: red, yellow, green, not rotatable>
red

> <BIOSOLVEIT.TPSA>
141.74

$$$$
G1.sdf
b8Hydescor01032215413D 1   1.00000     0.00000     0
Hydescorer 1.1.2 b8048283
 69 72  0  0  0  0            999 V2000
   15.6696  -33.0853   -9.6789 C   0  0  0  0  0  0  0  0  0  0  0  0
   16.7970  -33.8258   -9.5646 C   0  0  0  0  0  0  0  0  0  0  0  0
   16.5064  -35.0961  -10.0629 C   0  0  0  0  0  0  0  0  0  0  0  0
   15.2019  -35.0883  -10.4653 C   0  0  0  0  0  0  0  0  0  0  0  0
   14.6891  -33.8351  -10.2242 O   0  0  0  0  0  0  0  0  0  0  0  0
   14.3816  -36.1426  -11.0527 C   0  0  0  0  0  0  0  0  0  0  0  0
   14.9795  -37.3094  -11.4373 N   0  0  0  0  0  0  0  0  0  0  0  0
   13.1620  -36.0734  -11.2039 O   0  0  0  0  0  0  0  0  0  0  0  0
   14.2006  -38.4199  -12.0410 C   0  0  2  0  0  0  0  0  0  0  0  0
   15.0558  -39.7000  -11.9643 C   0  0  0  0  0  0  0  0  0  0  0  0
   13.9345  -38.0493  -13.5226 C   0  0  0  0  0  0  0  0  0  0  0  0
   12.5489  -38.5607  -13.9837 C   0  0  0  0  0  0  0  0  0  0  0  0
   11.4711  -37.8230  -13.1664 C   0  0  0  0  0  0  0  0  0  0  0  0
   10.0562  -38.2564  -13.5736 C   0  0  0  0  0  0  0  0  0  0  0  0
    9.8262  -38.0254  -15.0727 C   0  0  0  0  0  0  0  0  0  0  0  0
   10.8869  -38.7614  -15.9010 C   0  0  0  0  0  0  0  0  0  0  0  0
   12.3047  -38.3375  -15.4911 C   0  0  0  0  0  0  0  0  0  0  0  0
   16.2405  -39.6546  -12.5856 N   0  0  0  0  0  0  0  0  0  0  0  0
   14.6519  -40.7614  -11.4863 O   0  0  0  0  0  0  0  0  0  0  0  0
   17.1715  -40.7822  -12.6085 C   0  0  0  0  0  0  0  0  0  0  0  0
   18.5896  -40.2419  -12.3463 C   0  0  2  0  0  0  0  0  0  0  0  0
   19.1767  -39.6662  -13.6531 C   0  0  0  0  0  0  0  0  0  0  0  0
   20.3944  -38.9514  -13.2232 N   0  0  0  0  0  0  0  0  0  0  0  0
   21.3708  -39.8949  -12.6226 C   0  0  0  0  0  0  0  0  0  0  0  0
   20.7027  -40.6058  -11.4150 C   0  0  0  0  0  0  0  0  0  0  0  0
   19.4960  -41.2321  -11.8673 O   0  0  0  0  0  0  0  0  0  0  0  0
   21.0207  -37.7777  -14.2012 S   0  0  0  0  0  0  0  0  0  0  0  0
   19.6125  -36.9646  -15.0020 C   0  0  0  0  0  0  0  0  0  0  0  0
   21.6896  -36.8237  -13.3908 O   0  0  0  0  0  0  0  0  0  0  0  0
   21.8026  -38.4125  -15.2034 O   0  0  0  0  0  0  0  0  0  0  0  0
   19.0321  -37.4487  -16.1883 C   0  0  0  0  0  0  0  0  0  0  0  0
   17.9399  -36.7738  -16.7459 C   0  0  0  0  0  0  0  0  0  0  0  0
   17.4301  -35.6297  -16.1491 C   0  0  0  0  0  0  0  0  0  0  0  0
   18.0063  -35.1426  -14.9849 C   0  0  0  0  0  0  0  0  0  0  0  0
   19.0884  -35.8058  -14.4172 C   0  0  0  0  0  0  0  0  0  0  0  0
   19.5331  -38.6096  -16.8818 C   0  0  0  0  0  0  0  0  0  0  0  0
   19.9110  -39.5104  -17.4773 N   0  0  0  0  0  0  0  0  0  0  0  0
   15.5775  -32.1290   -9.4015 H   0  0  0  0  0  0  0  0  0  0  0  0
   17.6735  -33.5198   -9.1929 H   0  0  0  0  0  0  0  0  0  0  0  0
   17.1376  -35.8700  -10.1155 H   0  0  0  0  0  0  0  0  0  0  0  0
   15.9653  -37.4180  -11.3089 H   0  0  0  0  0  0  0  0  0  0  0  0
   13.3374  -38.5468  -11.5525 H   0  0  0  0  0  0  0  0  0  0  0  0
   14.6426  -38.4628  -14.0950 H   0  0  0  0  0  0  0  0  0  0  0  0
   13.9650  -37.0546  -13.6211 H   0  0  0  0  0  0  0  0  0  0  0  0
   12.4863  -39.5396  -13.7892 H   0  0  0  0  0  0  0  0  0  0  0  0
   11.5654  -36.8393  -13.3187 H   0  0  0  0  0  0  0  0  0  0  0  0
   11.6054  -38.0245  -12.1962 H   0  0  0  0  0  0  0  0  0  0  0  0
    9.3880  -37.7244  -13.0535 H   0  0  0  0  0  0  0  0  0  0  0  0
    9.9396  -39.2285  -13.3699 H   0  0  0  0  0  0  0  0  0  0  0  0
    9.8794  -37.0457  -15.2663 H   0  0  0  0  0  0  0  0  0  0  0  0
    8.9197  -38.3659  -15.3224 H   0  0  0  0  0  0  0  0  0  0  0  0
   10.7501  -38.5493  -16.8686 H   0  0  0  0  0  0  0  0  0  0  0  0
   10.7868  -39.7461  -15.7582 H   0  0  0  0  0  0  0  0  0  0  0  0
   12.9678  -38.8762  -16.0108 H   0  0  0  0  0  0  0  0  0  0  0  0
   12.4268  -37.3672  -15.6998 H   0  0  0  0  0  0  0  0  0  0  0  0
   16.5009  -38.8112  -13.0556 H   0  0  0  0  0  0  0  0  0  0  0  0
   17.1396  -41.2292  -13.5023 H   0  0  0  0  0  0  0  0  0  0  0  0
   16.9234  -41.4403  -11.8976 H   0  0  0  0  0  0  0  0  0  0  0  0
   18.5322  -39.5071  -11.6705 H   0  0  0  0  0  0  0  0  0  0  0  0
   18.5303  -39.0368  -14.0845 H   0  0  0  0  0  0  0  0  0  0  0  0
   19.4043  -40.4004  -14.2928 H   0  0  0  0  0  0  0  0  0  0  0  0
   22.1771  -39.3916  -12.3121 H   0  0  0  0  0  0  0  0  0  0  0  0
   21.6439  -40.5745  -13.3035 H   0  0  0  0  0  0  0  0  0  0  0  0
   20.4889  -39.9350  -10.7048 H   0  0  0  0  0  0  0  0  0  0  0  0
   21.3233  -41.2970  -11.0448 H   0  0  0  0  0  0  0  0  0  0  0  0
   17.5216  -37.1208  -17.5853 H   0  0  0  0  0  0  0  0  0  0  0  0
   16.6490  -35.1571  -16.5573 H   0  0  0  0  0  0  0  0  0  0  0  0
   17.6440  -34.3158  -14.5547 H   0  0  0  0  0  0  0  0  0  0  0  0
   19.4987  -35.4494  -13.5778 H   0  0  0  0  0  0  0  0  0  0  0  0
  1  2  2  0  0  0  0
  1  5  1  0  0  0  0
  1 38  1  0  0  0  0
  2  3  1  0  0  0  0
  2 39  1  0  0  0  0
  3  4  2  0  0  0  0
  3 40  1  0  0  0  0
  4  5  1  0  0  0  0
  4  6  1  0  0  0  0
  6  7  1  0  0  0  0
  6  8  2  0  0  0  0
  7  9  1  0  0  0  0
  7 41  1  0  0  0  0
  9 10  1  0  0  0  0
  9 11  1  0  0  0  0
  9 42  1  0  0  0  0
 10 18  1  0  0  0  0
 10 19  2  0  0  0  0
 11 12  1  0  0  0  0
 11 43  1  0  0  0  0
 11 44  1  0  0  0  0
 12 13  1  0  0  0  0
 12 17  1  0  0  0  0
 12 45  1  0  0  0  0
 13 14  1  0  0  0  0
 13 46  1  0  0  0  0
 13 47  1  0  0  0  0
 14 15  1  0  0  0  0
 14 48  1  0  0  0  0
 14 49  1  0  0  0  0
 15 16  1  0  0  0  0
 15 50  1  0  0  0  0
 15 51  1  0  0  0  0
 16 17  1  0  0  0  0
 16 52  1  0  0  0  0
 16 53  1  0  0  0  0
 17 54  1  0  0  0  0
 17 55  1  0  0  0  0
 18 20  1  0  0  0  0
 18 56  1  0  0  0  0
 20 21  1  0  0  0  0
 20 57  1  0  0  0  0
 20 58  1  0  0  0  0
 21 22  1  0  0  0  0
 21 26  1  0  0  0  0
 21 59  1  0  0  0  0
 22 23  1  0  0  0  0
 22 60  1  0  0  0  0
 22 61  1  0  0  0  0
 23 24  1  0  0  0  0
 23 27  1  0  0  0  0
 24 25  1  0  0  0  0
 24 62  1  0  0  0  0
 24 63  1  0  0  0  0
 25 26  1  0  0  0  0
 25 64  1  0  0  0  0
 25 65  1  0  0  0  0
 27 28  1  0  0  0  0
 27 29  2  0  0  0  0
 27 30  2  0  0  0  0
 28 31  2  0  0  0  0
 28 35  1  0  0  0  0
 31 32  1  0  0  0  0
 31 36  1  0  0  0  0
 32 33  2  0  0  0  0
 32 66  1  0  0  0  0
 33 34  1  0  0  0  0
 33 67  1  0  0  0  0
 34 35  2  0  0  0  0
 34 68  1  0  0  0  0
 35 69  1  0  0  0  0
 36 37  3  0  0  0  0
M  END
> <BIOSOLVEIT.HYDE_ESTIMATED_AFFINITY_LOWER_BOUNDARY [nM]>
448721774225.339600

> <BIOSOLVEIT.HYDE_ESTIMATED_AFFINITY_UPPER_BOUNDARY [nM]>
44583161322382.429688

> <BIOSOLVEIT.HYDE_LIGAND_EFFICIENCY range: ++, +, 0, -, -->
--

> <BIOSOLVEIT.HYDE_LIGAND_LIPOPHILIC_EFFICIENCY range: ++, +, 0, -, -->
--

> <BIOSOLVEIT.INTER_CLASH range: red, yellow, green>
green

> <BIOSOLVEIT.INTRA_CLASH range: red, yellow, green>
yellow

> <BIOSOLVEIT.LOGP>
3.07658

> <BIOSOLVEIT.MOLECULAR WEIGHT>
528.626

> <BIOSOLVEIT.MOLECULE_CHECKSUM>
MjAuODM3NTsw

> <BIOSOLVEIT.TORSION_QUALITY range: red, yellow, green, not rotatable>
red

> <BIOSOLVEIT.TPSA>
141.74

$$$$
G1.sdf
b8Hydescor01032215413D 1   1.00000     0.00000     0
Hydescorer 1.1.2 b8048283
 69 72  0  0  0  0            999 V2000
   16.0892  -36.5362  -18.3563 C   0  0  0  0  0  0  0  0  0  0  0  0
   17.3563  -36.5383  -18.8325 C   0  0  0  0  0  0  0  0  0  0  0  0
   18.1931  -36.8879  -17.7723 C   0  0  0  0  0  0  0  0  0  0  0  0
   17.4029  -37.0867  -16.6769 C   0  0  0  0  0  0  0  0  0  0  0  0
   16.0969  -36.8671  -17.0481 O   0  0  0  0  0  0  0  0  0  0  0  0
   17.7495  -37.4602  -15.3095 C   0  0  0  0  0  0  0  0  0  0  0  0
   16.7632  -37.9042  -14.4746 N   0  0  0  0  0  0  0  0  0  0  0  0
   18.8907  -37.4354  -14.8488 O   0  0  0  0  0  0  0  0  0  0  0  0
   17.0511  -38.2994  -13.0727 C   0  0  2  0  0  0  0  0  0  0  0  0
   17.5467  -39.7589  -13.0801 C   0  0  0  0  0  0  0  0  0  0  0  0
   15.7237  -38.1954  -12.2786 C   0  0  0  0  0  0  0  0  0  0  0  0
   15.7049  -36.9287  -11.3901 C   0  0  0  0  0  0  0  0  0  0  0  0
   14.5423  -36.0331  -11.8593 C   0  0  0  0  0  0  0  0  0  0  0  0
   14.4357  -34.7553  -11.0159 C   0  0  0  0  0  0  0  0  0  0  0  0
   14.2674  -35.0964   -9.5296 C   0  0  0  0  0  0  0  0  0  0  0  0
   15.4228  -35.9809   -9.0448 C   0  0  0  0  0  0  0  0  0  0  0  0
   15.5390  -37.2568   -9.8912 C   0  0  0  0  0  0  0  0  0  0  0  0
   18.4890  -40.0651  -12.1801 N   0  0  0  0  0  0  0  0  0  0  0  0
   17.2183  -40.5855  -13.9327 O   0  0  0  0  0  0  0  0  0  0  0  0
   19.0659  -41.4030  -12.0550 C   0  0  0  0  0  0  0  0  0  0  0  0
   20.5668  -41.2538  -11.7437 C   0  0  2  0  0  0  0  0  0  0  0  0
   21.2908  -40.6333  -12.9580 C   0  0  0  0  0  0  0  0  0  0  0  0
   22.6347  -40.2962  -12.4494 N   0  0  0  0  0  0  0  0  0  0  0  0
   23.3563  -41.5221  -12.0242 C   0  0  0  0  0  0  0  0  0  0  0  0
   22.5236  -42.2380  -10.9269 C   0  0  0  0  0  0  0  0  0  0  0  0
   21.2112  -42.4894  -11.4440 O   0  0  0  0  0  0  0  0  0  0  0  0
   23.5309  -39.1619  -13.2471 S   0  0  0  0  0  0  0  0  0  0  0  0
   22.9353  -39.1407  -14.9589 C   0  0  0  0  0  0  0  0  0  0  0  0
   23.2744  -37.8927  -12.6660 O   0  0  0  0  0  0  0  0  0  0  0  0
   24.8848  -39.5929  -13.2476 O   0  0  0  0  0  0  0  0  0  0  0  0
   23.1493  -40.2085  -15.8491 C   0  0  0  0  0  0  0  0  0  0  0  0
   22.6523  -40.1266  -17.1550 C   0  0  0  0  0  0  0  0  0  0  0  0
   21.9607  -39.0029  -17.5842 C   0  0  0  0  0  0  0  0  0  0  0  0
   21.7565  -37.9430  -16.7127 C   0  0  0  0  0  0  0  0  0  0  0  0
   22.2402  -38.0128  -15.4112 C   0  0  0  0  0  0  0  0  0  0  0  0
   23.8907  -41.3899  -15.4824 C   0  0  0  0  0  0  0  0  0  0  0  0
   24.4915  -42.3336  -15.2431 N   0  0  0  0  0  0  0  0  0  0  0  0
   15.2724  -36.3221  -18.8920 H   0  0  0  0  0  0  0  0  0  0  0  0
   17.6395  -36.3288  -19.7684 H   0  0  0  0  0  0  0  0  0  0  0  0
   19.1886  -36.9766  -17.8082 H   0  0  0  0  0  0  0  0  0  0  0  0
   15.8252  -37.9645  -14.8159 H   0  0  0  0  0  0  0  0  0  0  0  0
   17.7438  -37.6974  -12.6754 H   0  0  0  0  0  0  0  0  0  0  0  0
   15.6263  -39.0034  -11.6976 H   0  0  0  0  0  0  0  0  0  0  0  0
   14.9599  -38.1540  -12.9228 H   0  0  0  0  0  0  0  0  0  0  0  0
   16.5642  -36.4335  -11.5178 H   0  0  0  0  0  0  0  0  0  0  0  0
   13.6869  -36.5452  -11.7818 H   0  0  0  0  0  0  0  0  0  0  0  0
   14.6935  -35.7794  -12.8147 H   0  0  0  0  0  0  0  0  0  0  0  0
   13.6450  -34.2253  -11.3223 H   0  0  0  0  0  0  0  0  0  0  0  0
   15.2673  -34.2130  -11.1357 H   0  0  0  0  0  0  0  0  0  0  0  0
   13.4037  -35.5834   -9.3999 H   0  0  0  0  0  0  0  0  0  0  0  0
   14.2558  -34.2499   -8.9974 H   0  0  0  0  0  0  0  0  0  0  0  0
   15.2607  -36.2356   -8.0914 H   0  0  0  0  0  0  0  0  0  0  0  0
   16.2776  -35.4663   -9.1115 H   0  0  0  0  0  0  0  0  0  0  0  0
   16.3337  -37.7797   -9.5832 H   0  0  0  0  0  0  0  0  0  0  0  0
   14.7114  -37.8046   -9.7682 H   0  0  0  0  0  0  0  0  0  0  0  0
   18.8133  -39.3462  -11.5652 H   0  0  0  0  0  0  0  0  0  0  0  0
   18.9464  -41.9045  -12.9119 H   0  0  0  0  0  0  0  0  0  0  0  0
   18.6141  -41.8983  -11.3130 H   0  0  0  0  0  0  0  0  0  0  0  0
   20.6716  -40.6403  -10.9610 H   0  0  0  0  0  0  0  0  0  0  0  0
   20.8148  -39.8119  -13.2723 H   0  0  0  0  0  0  0  0  0  0  0  0
   21.3511  -41.2914  -13.7085 H   0  0  0  0  0  0  0  0  0  0  0  0
   24.2528  -41.2740  -11.6573 H   0  0  0  0  0  0  0  0  0  0  0  0
   23.4739  -42.1317  -12.8081 H   0  0  0  0  0  0  0  0  0  0  0  0
   22.4610  -41.6551  -10.1168 H   0  0  0  0  0  0  0  0  0  0  0  0
   22.9611  -43.1032  -10.6822 H   0  0  0  0  0  0  0  0  0  0  0  0
   22.7975  -40.8880  -17.7869 H   0  0  0  0  0  0  0  0  0  0  0  0
   21.6102  -38.9572  -18.5196 H   0  0  0  0  0  0  0  0  0  0  0  0
   21.2622  -37.1299  -17.0201 H   0  0  0  0  0  0  0  0  0  0  0  0
   22.0892  -37.2453  -14.7881 H   0  0  0  0  0  0  0  0  0  0  0  0
  1  2  2  0  0  0  0
  1  5  1  0  0  0  0
  1 38  1  0  0  0  0
  2  3  1  0  0  0  0
  2 39  1  0  0  0  0
  3  4  2  0  0  0  0
  3 40  1  0  0  0  0
  4  5  1  0  0  0  0
  4  6  1  0  0  0  0
  6  7  1  0  0  0  0
  6  8  2  0  0  0  0
  7  9  1  0  0  0  0
  7 41  1  0  0  0  0
  9 10  1  0  0  0  0
  9 11  1  0  0  0  0
  9 42  1  0  0  0  0
 10 18  1  0  0  0  0
 10 19  2  0  0  0  0
 11 12  1  0  0  0  0
 11 43  1  0  0  0  0
 11 44  1  0  0  0  0
 12 13  1  0  0  0  0
 12 17  1  0  0  0  0
 12 45  1  0  0  0  0
 13 14  1  0  0  0  0
 13 46  1  0  0  0  0
 13 47  1  0  0  0  0
 14 15  1  0  0  0  0
 14 48  1  0  0  0  0
 14 49  1  0  0  0  0
 15 16  1  0  0  0  0
 15 50  1  0  0  0  0
 15 51  1  0  0  0  0
 16 17  1  0  0  0  0
 16 52  1  0  0  0  0
 16 53  1  0  0  0  0
 17 54  1  0  0  0  0
 17 55  1  0  0  0  0
 18 20  1  0  0  0  0
 18 56  1  0  0  0  0
 20 21  1  0  0  0  0
 20 57  1  0  0  0  0
 20 58  1  0  0  0  0
 21 22  1  0  0  0  0
 21 26  1  0  0  0  0
 21 59  1  0  0  0  0
 22 23  1  0  0  0  0
 22 60  1  0  0  0  0
 22 61  1  0  0  0  0
 23 24  1  0  0  0  0
 23 27  1  0  0  0  0
 24 25  1  0  0  0  0
 24 62  1  0  0  0  0
 24 63  1  0  0  0  0
 25 26  1  0  0  0  0
 25 64  1  0  0  0  0
 25 65  1  0  0  0  0
 27 28  1  0  0  0  0
 27 29  2  0  0  0  0
 27 30  2  0  0  0  0
 28 31  2  0  0  0  0
 28 35  1  0  0  0  0
 31 32  1  0  0  0  0
 31 36  1  0  0  0  0
 32 33  2  0  0  0  0
 32 66  1  0  0  0  0
 33 34  1  0  0  0  0
 33 67  1  0  0  0  0
 34 35  2  0  0  0  0
 34 68  1  0  0  0  0
 35 69  1  0  0  0  0
 36 37  3  0  0  0  0
M  END
> <BIOSOLVEIT.HYDE_ESTIMATED_AFFINITY_LOWER_BOUNDARY [nM]>
90413909.112803

> <BIOSOLVEIT.HYDE_ESTIMATED_AFFINITY_UPPER_BOUNDARY [nM]>
8983156439.694065

> <BIOSOLVEIT.HYDE_LIGAND_EFFICIENCY range: ++, +, 0, -, -->
--

> <BIOSOLVEIT.HYDE_LIGAND_LIPOPHILIC_EFFICIENCY range: ++, +, 0, -, -->
--

> <BIOSOLVEIT.INTER_CLASH range: red, yellow, green>
green

> <BIOSOLVEIT.INTRA_CLASH range: red, yellow, green>
green

> <BIOSOLVEIT.LOGP>
3.07658

> <BIOSOLVEIT.MOLECULAR WEIGHT>
528.626

> <BIOSOLVEIT.MOLECULE_CHECKSUM>
LTAuMjU3ODE5OzAuMDA2OTY4MDc=

> <BIOSOLVEIT.TORSION_QUALITY range: red, yellow, green, not rotatable>
red

> <BIOSOLVEIT.TPSA>
141.74

$$$$
G1.sdf
b8Hydescor01032215413D 1   1.00000     0.00000     0
Hydescorer 1.1.2 b8048283
 69 72  0  0  0  0            999 V2000
   14.6971  -33.0281   -9.8380 C   0  0  0  0  0  0  0  0  0  0  0  0
   15.9856  -32.6884   -9.5997 C   0  0  0  0  0  0  0  0  0  0  0  0
   16.7420  -33.8572   -9.6895 C   0  0  0  0  0  0  0  0  0  0  0  0
   15.8832  -34.8781   -9.9796 C   0  0  0  0  0  0  0  0  0  0  0  0
   14.6145  -34.3546  -10.0711 O   0  0  0  0  0  0  0  0  0  0  0  0
   16.1314  -36.3024  -10.1776 C   0  0  0  0  0  0  0  0  0  0  0  0
   16.7701  -36.7111  -11.3142 N   0  0  0  0  0  0  0  0  0  0  0  0
   15.8315  -37.1805   -9.3687 O   0  0  0  0  0  0  0  0  0  0  0  0
   17.0520  -38.1454  -11.5745 C   0  0  2  0  0  0  0  0  0  0  0  0
   18.3490  -38.2345  -12.4027 C   0  0  0  0  0  0  0  0  0  0  0  0
   15.8626  -38.7122  -12.3912 C   0  0  0  0  0  0  0  0  0  0  0  0
   15.3847  -40.0651  -11.8122 C   0  0  0  0  0  0  0  0  0  0  0  0
   13.9501  -40.3194  -12.3131 C   0  0  0  0  0  0  0  0  0  0  0  0
   13.3999  -41.6572  -11.8004 C   0  0  0  0  0  0  0  0  0  0  0  0
   14.3134  -42.8172  -12.2169 C   0  0  0  0  0  0  0  0  0  0  0  0
   15.7446  -42.5831  -11.7173 C   0  0  0  0  0  0  0  0  0  0  0  0
   16.2964  -41.2414  -12.2207 C   0  0  0  0  0  0  0  0  0  0  0  0
   19.4512  -37.7410  -11.8253 N   0  0  0  0  0  0  0  0  0  0  0  0
   18.3833  -38.6066  -13.5768 O   0  0  0  0  0  0  0  0  0  0  0  0
   20.7615  -37.7479  -12.4746 C   0  0  0  0  0  0  0  0  0  0  0  0
   21.4913  -39.0436  -12.0742 C   0  0  2  0  0  0  0  0  0  0  0  0
   21.3293  -40.0981  -13.1901 C   0  0  0  0  0  0  0  0  0  0  0  0
   22.2761  -41.1688  -12.8219 N   0  0  0  0  0  0  0  0  0  0  0  0
   21.9012  -41.7741  -11.5190 C   0  0  0  0  0  0  0  0  0  0  0  0
   21.8891  -40.6626  -10.4354 C   0  0  0  0  0  0  0  0  0  0  0  0
   21.0053  -39.6194  -10.8643 O   0  0  0  0  0  0  0  0  0  0  0  0
   22.7955  -42.2142  -13.9895 S   0  0  0  0  0  0  0  0  0  0  0  0
   23.0876  -41.2237  -15.4792 C   0  0  0  0  0  0  0  0  0  0  0  0
   24.0304  -42.7775  -13.5748 O   0  0  0  0  0  0  0  0  0  0  0  0
   21.7432  -43.1303  -14.2581 O   0  0  0  0  0  0  0  0  0  0  0  0
   24.0426  -40.1921  -15.5283 C   0  0  0  0  0  0  0  0  0  0  0  0
   24.2206  -39.4744  -16.7167 C   0  0  0  0  0  0  0  0  0  0  0  0
   23.4608  -39.7610  -17.8419 C   0  0  0  0  0  0  0  0  0  0  0  0
   22.5103  -40.7704  -17.7947 C   0  0  0  0  0  0  0  0  0  0  0  0
   22.3265  -41.4949  -16.6224 C   0  0  0  0  0  0  0  0  0  0  0  0
   24.8405  -39.8162  -14.3873 C   0  0  0  0  0  0  0  0  0  0  0  0
   25.4773  -39.4687  -13.5027 N   0  0  0  0  0  0  0  0  0  0  0  0
   13.9246  -32.3931   -9.8408 H   0  0  0  0  0  0  0  0  0  0  0  0
   16.3304  -31.7718   -9.3973 H   0  0  0  0  0  0  0  0  0  0  0  0
   17.7312  -33.9332   -9.5644 H   0  0  0  0  0  0  0  0  0  0  0  0
   17.0544  -36.0280  -11.9869 H   0  0  0  0  0  0  0  0  0  0  0  0
   17.1529  -38.6434  -10.7132 H   0  0  0  0  0  0  0  0  0  0  0  0
   16.1516  -38.8464  -13.3391 H   0  0  0  0  0  0  0  0  0  0  0  0
   15.1060  -38.0590  -12.3627 H   0  0  0  0  0  0  0  0  0  0  0  0
   15.3703  -40.0009  -10.8143 H   0  0  0  0  0  0  0  0  0  0  0  0
   13.9532  -40.3318  -13.3130 H   0  0  0  0  0  0  0  0  0  0  0  0
   13.3584  -39.5805  -11.9907 H   0  0  0  0  0  0  0  0  0  0  0  0
   12.4877  -41.8047  -12.1827 H   0  0  0  0  0  0  0  0  0  0  0  0
   13.3423  -41.6272  -10.8025 H   0  0  0  0  0  0  0  0  0  0  0  0
   14.3208  -42.8879  -13.2144 H   0  0  0  0  0  0  0  0  0  0  0  0
   13.9635  -43.6681  -11.8250 H   0  0  0  0  0  0  0  0  0  0  0  0
   16.3309  -43.3220  -12.0493 H   0  0  0  0  0  0  0  0  0  0  0  0
   15.7448  -42.5811  -10.7173 H   0  0  0  0  0  0  0  0  0  0  0  0
   17.2062  -41.0976  -11.8314 H   0  0  0  0  0  0  0  0  0  0  0  0
   16.3616  -41.2707  -13.2181 H   0  0  0  0  0  0  0  0  0  0  0  0
   19.3751  -37.3498  -10.9081 H   0  0  0  0  0  0  0  0  0  0  0  0
   21.2916  -36.9547  -12.1752 H   0  0  0  0  0  0  0  0  0  0  0  0
   20.6471  -37.7171  -13.4676 H   0  0  0  0  0  0  0  0  0  0  0  0
   22.4644  -38.8416  -11.9639 H   0  0  0  0  0  0  0  0  0  0  0  0
   21.5633  -39.7095  -14.0812 H   0  0  0  0  0  0  0  0  0  0  0  0
   20.3923  -40.4469  -13.2143 H   0  0  0  0  0  0  0  0  0  0  0  0
   22.5673  -42.4776  -11.2713 H   0  0  0  0  0  0  0  0  0  0  0  0
   20.9923  -42.1853  -11.5887 H   0  0  0  0  0  0  0  0  0  0  0  0
   22.8119  -40.2958  -10.3180 H   0  0  0  0  0  0  0  0  0  0  0  0
   21.5680  -41.0411   -9.5674 H   0  0  0  0  0  0  0  0  0  0  0  0
   24.9041  -38.7456  -16.7553 H   0  0  0  0  0  0  0  0  0  0  0  0
   23.5981  -39.2410  -18.6850 H   0  0  0  0  0  0  0  0  0  0  0  0
   21.9581  -40.9764  -18.6026 H   0  0  0  0  0  0  0  0  0  0  0  0
   21.6398  -42.2213  -16.5954 H   0  0  0  0  0  0  0  0  0  0  0  0
  1  2  2  0  0  0  0
  1  5  1  0  0  0  0
  1 38  1  0  0  0  0
  2  3  1  0  0  0  0
  2 39  1  0  0  0  0
  3  4  2  0  0  0  0
  3 40  1  0  0  0  0
  4  5  1  0  0  0  0
  4  6  1  0  0  0  0
  6  7  1  0  0  0  0
  6  8  2  0  0  0  0
  7  9  1  0  0  0  0
  7 41  1  0  0  0  0
  9 10  1  0  0  0  0
  9 11  1  0  0  0  0
  9 42  1  0  0  0  0
 10 18  1  0  0  0  0
 10 19  2  0  0  0  0
 11 12  1  0  0  0  0
 11 43  1  0  0  0  0
 11 44  1  0  0  0  0
 12 13  1  0  0  0  0
 12 17  1  0  0  0  0
 12 45  1  0  0  0  0
 13 14  1  0  0  0  0
 13 46  1  0  0  0  0
 13 47  1  0  0  0  0
 14 15  1  0  0  0  0
 14 48  1  0  0  0  0
 14 49  1  0  0  0  0
 15 16  1  0  0  0  0
 15 50  1  0  0  0  0
 15 51  1  0  0  0  0
 16 17  1  0  0  0  0
 16 52  1  0  0  0  0
 16 53  1  0  0  0  0
 17 54  1  0  0  0  0
 17 55  1  0  0  0  0
 18 20  1  0  0  0  0
 18 56  1  0  0  0  0
 20 21  1  0  0  0  0
 20 57  1  0  0  0  0
 20 58  1  0  0  0  0
 21 22  1  0  0  0  0
 21 26  1  0  0  0  0
 21 59  1  0  0  0  0
 22 23  1  0  0  0  0
 22 60  1  0  0  0  0
 22 61  1  0  0  0  0
 23 24  1  0  0  0  0
 23 27  1  0  0  0  0
 24 25  1  0  0  0  0
 24 62  1  0  0  0  0
 24 63  1  0  0  0  0
 25 26  1  0  0  0  0
 25 64  1  0  0  0  0
 25 65  1  0  0  0  0
 27 28  1  0  0  0  0
 27 29  2  0  0  0  0
 27 30  2  0  0  0  0
 28 31  2  0  0  0  0
 28 35  1  0  0  0  0
 31 32  1  0  0  0  0
 31 36  1  0  0  0  0
 32 33  2  0  0  0  0
 32 66  1  0  0  0  0
 33 34  1  0  0  0  0
 33 67  1  0  0  0  0
 34 35  2  0  0  0  0
 34 68  1  0  0  0  0
 35 69  1  0  0  0  0
 36 37  3  0  0  0  0
M  END
> <BIOSOLVEIT.HYDE_ESTIMATED_AFFINITY_LOWER_BOUNDARY [nM]>
16279471.252633

> <BIOSOLVEIT.HYDE_ESTIMATED_AFFINITY_UPPER_BOUNDARY [nM]>
1617461720.800598

> <BIOSOLVEIT.HYDE_LIGAND_EFFICIENCY range: ++, +, 0, -, -->
--

> <BIOSOLVEIT.HYDE_LIGAND_LIPOPHILIC_EFFICIENCY range: ++, +, 0, -, -->
--

> <BIOSOLVEIT.INTER_CLASH range: red, yellow, green>
green

> <BIOSOLVEIT.INTRA_CLASH range: red, yellow, green>
green

> <BIOSOLVEIT.LOGP>
3.07658

> <BIOSOLVEIT.MOLECULAR WEIGHT>
528.626

> <BIOSOLVEIT.MOLECULE_CHECKSUM>
LTQuNTA3OTc7MC4xMjE4Mzc=

> <BIOSOLVEIT.TORSION_QUALITY range: red, yellow, green, not rotatable>
red

> <BIOSOLVEIT.TPSA>
141.74

$$$$
G1.sdf
b8Hydescor01032215413D 1   1.00000     0.00000     0
Hydescorer 1.1.2 b8048283
 69 72  0  0  0  0            999 V2000
   17.1883  -30.1952   -9.6844 C   0  0  0  0  0  0  0  0  0  0  0  0
   17.5619  -29.6099  -10.8463 C   0  0  0  0  0  0  0  0  0  0  0  0
   17.2400  -30.4959  -11.8748 C   0  0  0  0  0  0  0  0  0  0  0  0
   16.6785  -31.6003  -11.3014 C   0  0  0  0  0  0  0  0  0  0  0  0
   16.6490  -31.4056   -9.9402 O   0  0  0  0  0  0  0  0  0  0  0  0
   16.1670  -32.8278  -11.9025 C   0  0  0  0  0  0  0  0  0  0  0  0
   17.0274  -33.6362  -12.5903 N   0  0  0  0  0  0  0  0  0  0  0  0
   15.0025  -33.2158  -11.8100 O   0  0  0  0  0  0  0  0  0  0  0  0
   16.5692  -34.8980  -13.2246 C   0  0  2  0  0  0  0  0  0  0  0  0
   17.2689  -36.0722  -12.5121 C   0  0  0  0  0  0  0  0  0  0  0  0
   16.9974  -34.8518  -14.7138 C   0  0  0  0  0  0  0  0  0  0  0  0
   16.8327  -36.2370  -15.3832 C   0  0  0  0  0  0  0  0  0  0  0  0
   15.4575  -36.8024  -14.9796 C   0  0  0  0  0  0  0  0  0  0  0  0
   15.1994  -38.1739  -15.6181 C   0  0  0  0  0  0  0  0  0  0  0  0
   15.3037  -38.0914  -17.1465 C   0  0  0  0  0  0  0  0  0  0  0  0
   16.6719  -37.5384  -17.5647 C   0  0  0  0  0  0  0  0  0  0  0  0
   16.9384  -36.1698  -16.9214 C   0  0  0  0  0  0  0  0  0  0  0  0
   18.5992  -36.1341  -12.6471 N   0  0  0  0  0  0  0  0  0  0  0  0
   16.6633  -36.9903  -11.9567 O   0  0  0  0  0  0  0  0  0  0  0  0
   19.4137  -37.1835  -12.0354 C   0  0  0  0  0  0  0  0  0  0  0  0
   19.3020  -38.4492  -12.9056 C   0  0  2  0  0  0  0  0  0  0  0  0
   19.1438  -39.6903  -12.0008 C   0  0  0  0  0  0  0  0  0  0  0  0
   18.7808  -40.7771  -12.9310 N   0  0  0  0  0  0  0  0  0  0  0  0
   19.8742  -41.0190  -13.9057 C   0  0  0  0  0  0  0  0  0  0  0  0
   20.1497  -39.7053  -14.6856 C   0  0  0  0  0  0  0  0  0  0  0  0
   20.4365  -38.6674  -13.7404 O   0  0  0  0  0  0  0  0  0  0  0  0
   18.0224  -42.1184  -12.3376 S   0  0  0  0  0  0  0  0  0  0  0  0
   16.2707  -41.6877  -12.1610 C   0  0  0  0  0  0  0  0  0  0  0  0
   18.1350  -43.1613  -13.2937 O   0  0  0  0  0  0  0  0  0  0  0  0
   18.5516  -42.3868  -11.0466 O   0  0  0  0  0  0  0  0  0  0  0  0
   15.3211  -42.5785  -11.6287 C   0  0  0  0  0  0  0  0  0  0  0  0
   13.9861  -42.1740  -11.5135 C   0  0  0  0  0  0  0  0  0  0  0  0
   13.5868  -40.9109  -11.9264 C   0  0  0  0  0  0  0  0  0  0  0  0
   14.5181  -40.0331  -12.4620 C   0  0  0  0  0  0  0  0  0  0  0  0
   15.8485  -40.4196  -12.5774 C   0  0  0  0  0  0  0  0  0  0  0  0
   15.6582  -43.9181  -11.2141 C   0  0  0  0  0  0  0  0  0  0  0  0
   15.8750  -44.9951  -10.8953 N   0  0  0  0  0  0  0  0  0  0  0  0
   17.2954  -29.7923   -8.7754 H   0  0  0  0  0  0  0  0  0  0  0  0
   17.9886  -28.7113  -10.9483 H   0  0  0  0  0  0  0  0  0  0  0  0
   17.3924  -30.3489  -12.8521 H   0  0  0  0  0  0  0  0  0  0  0  0
   17.9886  -33.3717  -12.6683 H   0  0  0  0  0  0  0  0  0  0  0  0
   15.5759  -34.9860  -13.1494 H   0  0  0  0  0  0  0  0  0  0  0  0
   17.9565  -34.5740  -14.7695 H   0  0  0  0  0  0  0  0  0  0  0  0
   16.4289  -34.1858  -15.1968 H   0  0  0  0  0  0  0  0  0  0  0  0
   17.5454  -36.8478  -15.0382 H   0  0  0  0  0  0  0  0  0  0  0  0
   14.7454  -36.1668  -15.2778 H   0  0  0  0  0  0  0  0  0  0  0  0
   15.4249  -36.8966  -13.9846 H   0  0  0  0  0  0  0  0  0  0  0  0
   14.2822  -38.4845  -15.3683 H   0  0  0  0  0  0  0  0  0  0  0  0
   15.8765  -38.8266  -15.2780 H   0  0  0  0  0  0  0  0  0  0  0  0
   14.5854  -37.4881  -17.4929 H   0  0  0  0  0  0  0  0  0  0  0  0
   15.1864  -39.0059  -17.5338 H   0  0  0  0  0  0  0  0  0  0  0  0
   16.6940  -37.4409  -18.5597 H   0  0  0  0  0  0  0  0  0  0  0  0
   17.3842  -38.1784  -17.2766 H   0  0  0  0  0  0  0  0  0  0  0  0
   17.8583  -35.8672  -17.1709 H   0  0  0  0  0  0  0  0  0  0  0  0
   16.2670  -35.5132  -17.2649 H   0  0  0  0  0  0  0  0  0  0  0  0
   19.0570  -35.4307  -13.1909 H   0  0  0  0  0  0  0  0  0  0  0  0
   19.0796  -37.3766  -11.1128 H   0  0  0  0  0  0  0  0  0  0  0  0
   20.3678  -36.8877  -11.9893 H   0  0  0  0  0  0  0  0  0  0  0  0
   18.4900  -38.3693  -13.4837 H   0  0  0  0  0  0  0  0  0  0  0  0
   18.4206  -39.5461  -11.3253 H   0  0  0  0  0  0  0  0  0  0  0  0
   20.0019  -39.8979  -11.5313 H   0  0  0  0  0  0  0  0  0  0  0  0
   19.6017  -41.7382  -14.5447 H   0  0  0  0  0  0  0  0  0  0  0  0
   20.7015  -41.3009  -13.4196 H   0  0  0  0  0  0  0  0  0  0  0  0
   19.3445  -39.4578  -15.2246 H   0  0  0  0  0  0  0  0  0  0  0  0
   20.9323  -39.8325  -15.2949 H   0  0  0  0  0  0  0  0  0  0  0  0
   13.3112  -42.8035  -11.1285 H   0  0  0  0  0  0  0  0  0  0  0  0
   12.6300  -40.6340  -11.8381 H   0  0  0  0  0  0  0  0  0  0  0  0
   14.2328  -39.1236  -12.7645 H   0  0  0  0  0  0  0  0  0  0  0  0
   16.5145  -39.7817  -12.9641 H   0  0  0  0  0  0  0  0  0  0  0  0
  1  2  2  0  0  0  0
  1  5  1  0  0  0  0
  1 38  1  0  0  0  0
  2  3  1  0  0  0  0
  2 39  1  0  0  0  0
  3  4  2  0  0  0  0
  3 40  1  0  0  0  0
  4  5  1  0  0  0  0
  4  6  1  0  0  0  0
  6  7  1  0  0  0  0
  6  8  2  0  0  0  0
  7  9  1  0  0  0  0
  7 41  1  0  0  0  0
  9 10  1  0  0  0  0
  9 11  1  0  0  0  0
  9 42  1  0  0  0  0
 10 18  1  0  0  0  0
 10 19  2  0  0  0  0
 11 12  1  0  0  0  0
 11 43  1  0  0  0  0
 11 44  1  0  0  0  0
 12 13  1  0  0  0  0
 12 17  1  0  0  0  0
 12 45  1  0  0  0  0
 13 14  1  0  0  0  0
 13 46  1  0  0  0  0
 13 47  1  0  0  0  0
 14 15  1  0  0  0  0
 14 48  1  0  0  0  0
 14 49  1  0  0  0  0
 15 16  1  0  0  0  0
 15 50  1  0  0  0  0
 15 51  1  0  0  0  0
 16 17  1  0  0  0  0
 16 52  1  0  0  0  0
 16 53  1  0  0  0  0
 17 54  1  0  0  0  0
 17 55  1  0  0  0  0
 18 20  1  0  0  0  0
 18 56  1  0  0  0  0
 20 21  1  0  0  0  0
 20 57  1  0  0  0  0
 20 58  1  0  0  0  0
 21 22  1  0  0  0  0
 21 26  1  0  0  0  0
 21 59  1  0  0  0  0
 22 23  1  0  0  0  0
 22 60  1  0  0  0  0
 22 61  1  0  0  0  0
 23 24  1  0  0  0  0
 23 27  1  0  0  0  0
 24 25  1  0  0  0  0
 24 62  1  0  0  0  0
 24 63  1  0  0  0  0
 25 26  1  0  0  0  0
 25 64  1  0  0  0  0
 25 65  1  0  0  0  0
 27 28  1  0  0  0  0
 27 29  2  0  0  0  0
 27 30  2  0  0  0  0
 28 31  2  0  0  0  0
 28 35  1  0  0  0  0
 31 32  1  0  0  0  0
 31 36  1  0  0  0  0
 32 33  2  0  0  0  0
 32 66  1  0  0  0  0
 33 34  1  0  0  0  0
 33 67  1  0  0  0  0
 34 35  2  0  0  0  0
 34 68  1  0  0  0  0
 35 69  1  0  0  0  0
 36 37  3  0  0  0  0
M  END
> <BIOSOLVEIT.HYDE_ESTIMATED_AFFINITY_LOWER_BOUNDARY [nM]>
4421059809.208512

> <BIOSOLVEIT.HYDE_ESTIMATED_AFFINITY_UPPER_BOUNDARY [nM]>
439258431419.158508

> <BIOSOLVEIT.HYDE_LIGAND_EFFICIENCY range: ++, +, 0, -, -->
--

> <BIOSOLVEIT.HYDE_LIGAND_LIPOPHILIC_EFFICIENCY range: ++, +, 0, -, -->
--

> <BIOSOLVEIT.INTER_CLASH range: red, yellow, green>
green

> <BIOSOLVEIT.INTRA_CLASH range: red, yellow, green>
green

> <BIOSOLVEIT.LOGP>
3.07658

> <BIOSOLVEIT.MOLECULAR WEIGHT>
528.626

> <BIOSOLVEIT.MOLECULE_CHECKSUM>
OS4zODQ2Nzsw

> <BIOSOLVEIT.TORSION_QUALITY range: red, yellow, green, not rotatable>
red

> <BIOSOLVEIT.TPSA>
141.74

$$$$
G1.sdf
b8Hydescor01032215413D 1   1.00000     0.00000     0
Hydescorer 1.1.2 b8048283
 69 72  0  0  0  0            999 V2000
   16.1529  -31.3542  -11.2284 C   0  0  0  0  0  0  0  0  0  0  0  0
   14.8427  -31.6899  -11.1746 C   0  0  0  0  0  0  0  0  0  0  0  0
   14.6550  -32.7552  -12.0558 C   0  0  0  0  0  0  0  0  0  0  0  0
   15.8652  -33.0341  -12.6228 C   0  0  0  0  0  0  0  0  0  0  0  0
   16.7909  -32.1599  -12.1028 O   0  0  0  0  0  0  0  0  0  0  0  0
   16.2435  -34.0398  -13.6101 C   0  0  0  0  0  0  0  0  0  0  0  0
   17.1744  -34.9813  -13.2725 N   0  0  0  0  0  0  0  0  0  0  0  0
   15.7564  -34.1271  -14.7372 O   0  0  0  0  0  0  0  0  0  0  0  0
   17.6017  -36.0309  -14.2318 C   0  0  2  0  0  0  0  0  0  0  0  0
   16.6295  -37.2202  -14.1026 C   0  0  0  0  0  0  0  0  0  0  0  0
   19.0330  -36.4716  -13.8313 C   0  0  0  0  0  0  0  0  0  0  0  0
   19.9354  -36.6302  -15.0782 C   0  0  0  0  0  0  0  0  0  0  0  0
   21.2155  -37.3729  -14.6504 C   0  0  0  0  0  0  0  0  0  0  0  0
   22.1657  -37.5927  -15.8354 C   0  0  0  0  0  0  0  0  0  0  0  0
   21.4638  -38.3643  -16.9603 C   0  0  0  0  0  0  0  0  0  0  0  0
   20.1910  -37.6323  -17.4039 C   0  0  0  0  0  0  0  0  0  0  0  0
   19.2408  -37.4024  -16.2199 C   0  0  0  0  0  0  0  0  0  0  0  0
   16.4787  -37.7262  -12.8726 N   0  0  0  0  0  0  0  0  0  0  0  0
   16.1094  -37.7827  -15.0676 O   0  0  0  0  0  0  0  0  0  0  0  0
   15.5953  -38.8540  -12.5784 C   0  0  0  0  0  0  0  0  0  0  0  0
   16.3733  -40.1571  -12.8403 C   0  0  2  0  0  0  0  0  0  0  0  0
   17.8864  -39.9030  -12.6685 C   0  0  0  0  0  0  0  0  0  0  0  0
   18.4867  -41.2514  -12.6752 N   0  0  0  0  0  0  0  0  0  0  0  0
   18.2487  -41.9240  -13.9772 C   0  0  0  0  0  0  0  0  0  0  0  0
   16.7185  -42.0088  -14.2246 C   0  0  0  0  0  0  0  0  0  0  0  0
   16.1718  -40.6866  -14.1482 O   0  0  0  0  0  0  0  0  0  0  0  0
   19.9808  -41.4655  -12.0057 S   0  0  0  0  0  0  0  0  0  0  0  0
   19.8921  -42.9805  -11.0145 C   0  0  0  0  0  0  0  0  0  0  0  0
   20.9197  -41.6662  -13.0510 O   0  0  0  0  0  0  0  0  0  0  0  0
   20.2321  -40.3720  -11.1340 O   0  0  0  0  0  0  0  0  0  0  0  0
   20.9757  -43.4509  -10.2507 C   0  0  0  0  0  0  0  0  0  0  0  0
   20.8320  -44.6246   -9.5018 C   0  0  0  0  0  0  0  0  0  0  0  0
   19.6393  -45.3335   -9.5111 C   0  0  0  0  0  0  0  0  0  0  0  0
   18.5716  -44.8789  -10.2714 C   0  0  0  0  0  0  0  0  0  0  0  0
   18.6986  -43.7118  -11.0162 C   0  0  0  0  0  0  0  0  0  0  0  0
   22.2549  -42.7856  -10.2235 C   0  0  0  0  0  0  0  0  0  0  0  0
   23.2925  -42.3048  -10.1905 N   0  0  0  0  0  0  0  0  0  0  0  0
   16.5823  -30.6212  -10.7007 H   0  0  0  0  0  0  0  0  0  0  0  0
   14.1411  -31.2560  -10.6094 H   0  0  0  0  0  0  0  0  0  0  0  0
   13.7927  -33.2274  -12.2385 H   0  0  0  0  0  0  0  0  0  0  0  0
   17.5775  -34.9629  -12.3575 H   0  0  0  0  0  0  0  0  0  0  0  0
   17.5947  -35.6740  -15.1659 H   0  0  0  0  0  0  0  0  0  0  0  0
   18.9829  -37.3472  -13.3508 H   0  0  0  0  0  0  0  0  0  0  0  0
   19.4301  -35.7815  -13.2262 H   0  0  0  0  0  0  0  0  0  0  0  0
   20.1868  -35.7213  -15.4111 H   0  0  0  0  0  0  0  0  0  0  0  0
   20.9624  -38.2618  -14.2685 H   0  0  0  0  0  0  0  0  0  0  0  0
   21.6864  -36.8324  -13.9531 H   0  0  0  0  0  0  0  0  0  0  0  0
   22.9605  -38.1149  -15.5259 H   0  0  0  0  0  0  0  0  0  0  0  0
   22.4656  -36.7048  -16.1844 H   0  0  0  0  0  0  0  0  0  0  0  0
   21.2204  -39.2766  -16.6309 H   0  0  0  0  0  0  0  0  0  0  0  0
   22.0847  -38.4460  -17.7400 H   0  0  0  0  0  0  0  0  0  0  0  0
   19.7229  -38.1822  -18.0956 H   0  0  0  0  0  0  0  0  0  0  0  0
   20.4434  -36.7478  -17.7960 H   0  0  0  0  0  0  0  0  0  0  0  0
   18.4510  -36.8759  -16.5347 H   0  0  0  0  0  0  0  0  0  0  0  0
   18.9338  -38.2886  -15.8728 H   0  0  0  0  0  0  0  0  0  0  0  0
   16.9935  -37.3144  -12.1207 H   0  0  0  0  0  0  0  0  0  0  0  0
   14.7899  -38.8161  -13.1697 H   0  0  0  0  0  0  0  0  0  0  0  0
   15.3081  -38.8180  -11.6212 H   0  0  0  0  0  0  0  0  0  0  0  0
   16.0858  -40.8414  -12.1703 H   0  0  0  0  0  0  0  0  0  0  0  0
   18.0713  -39.4374  -11.8031 H   0  0  0  0  0  0  0  0  0  0  0  0
   18.2413  -39.3537  -13.4250 H   0  0  0  0  0  0  0  0  0  0  0  0
   18.6372  -42.8452  -13.9555 H   0  0  0  0  0  0  0  0  0  0  0  0
   18.6791  -41.3980  -14.7107 H   0  0  0  0  0  0  0  0  0  0  0  0
   16.2959  -42.5894  -13.5287 H   0  0  0  0  0  0  0  0  0  0  0  0
   16.5442  -42.3941  -15.1308 H   0  0  0  0  0  0  0  0  0  0  0  0
   21.5991  -44.9566   -8.9528 H   0  0  0  0  0  0  0  0  0  0  0  0
   19.5495  -46.1703   -8.9710 H   0  0  0  0  0  0  0  0  0  0  0  0
   17.7121  -45.3899  -10.2837 H   0  0  0  0  0  0  0  0  0  0  0  0
   17.9249  -43.3896  -11.5618 H   0  0  0  0  0  0  0  0  0  0  0  0
  1  2  2  0  0  0  0
  1  5  1  0  0  0  0
  1 38  1  0  0  0  0
  2  3  1  0  0  0  0
  2 39  1  0  0  0  0
  3  4  2  0  0  0  0
  3 40  1  0  0  0  0
  4  5  1  0  0  0  0
  4  6  1  0  0  0  0
  6  7  1  0  0  0  0
  6  8  2  0  0  0  0
  7  9  1  0  0  0  0
  7 41  1  0  0  0  0
  9 10  1  0  0  0  0
  9 11  1  0  0  0  0
  9 42  1  0  0  0  0
 10 18  1  0  0  0  0
 10 19  2  0  0  0  0
 11 12  1  0  0  0  0
 11 43  1  0  0  0  0
 11 44  1  0  0  0  0
 12 13  1  0  0  0  0
 12 17  1  0  0  0  0
 12 45  1  0  0  0  0
 13 14  1  0  0  0  0
 13 46  1  0  0  0  0
 13 47  1  0  0  0  0
 14 15  1  0  0  0  0
 14 48  1  0  0  0  0
 14 49  1  0  0  0  0
 15 16  1  0  0  0  0
 15 50  1  0  0  0  0
 15 51  1  0  0  0  0
 16 17  1  0  0  0  0
 16 52  1  0  0  0  0
 16 53  1  0  0  0  0
 17 54  1  0  0  0  0
 17 55  1  0  0  0  0
 18 20  1  0  0  0  0
 18 56  1  0  0  0  0
 20 21  1  0  0  0  0
 20 57  1  0  0  0  0
 20 58  1  0  0  0  0
 21 22  1  0  0  0  0
 21 26  1  0  0  0  0
 21 59  1  0  0  0  0
 22 23  1  0  0  0  0
 22 60  1  0  0  0  0
 22 61  1  0  0  0  0
 23 24  1  0  0  0  0
 23 27  1  0  0  0  0
 24 25  1  0  0  0  0
 24 62  1  0  0  0  0
 24 63  1  0  0  0  0
 25 26  1  0  0  0  0
 25 64  1  0  0  0  0
 25 65  1  0  0  0  0
 27 28  1  0  0  0  0
 27 29  2  0  0  0  0
 27 30  2  0  0  0  0
 28 31  2  0  0  0  0
 28 35  1  0  0  0  0
 31 32  1  0  0  0  0
 31 36  1  0  0  0  0
 32 33  2  0  0  0  0
 32 66  1  0  0  0  0
 33 34  1  0  0  0  0
 33 67  1  0  0  0  0
 34 35  2  0  0  0  0
 34 68  1  0  0  0  0
 35 69  1  0  0  0  0
 36 37  3  0  0  0  0
M  END
> <BIOSOLVEIT.HYDE_ESTIMATED_AFFINITY_LOWER_BOUNDARY [nM]>
260530.738878

> <BIOSOLVEIT.HYDE_ESTIMATED_AFFINITY_UPPER_BOUNDARY [nM]>
25885269.287120

> <BIOSOLVEIT.HYDE_LIGAND_EFFICIENCY range: ++, +, 0, -, -->
--

> <BIOSOLVEIT.HYDE_LIGAND_LIPOPHILIC_EFFICIENCY range: ++, +, 0, -, -->
--

> <BIOSOLVEIT.INTER_CLASH range: red, yellow, green>
green

> <BIOSOLVEIT.INTRA_CLASH range: red, yellow, green>
green

> <BIOSOLVEIT.LOGP>
3.07658

> <BIOSOLVEIT.MOLECULAR WEIGHT>
528.626

> <BIOSOLVEIT.MOLECULE_CHECKSUM>
LTE0Ljc1ODM7MC4zOTg4NzM=

> <BIOSOLVEIT.TORSION_QUALITY range: red, yellow, green, not rotatable>
red

> <BIOSOLVEIT.TPSA>
141.74

$$$$
G1.sdf
b8Hydescor01032215413D 1   1.00000     0.00000     0
Hydescorer 1.1.2 b8048283
 69 72  0  0  0  0            999 V2000
   17.5184  -29.6299  -11.4973 C   0  0  0  0  0  0  0  0  0  0  0  0
   16.3699  -29.6089  -10.7812 C   0  0  0  0  0  0  0  0  0  0  0  0
   15.8077  -30.8827  -10.8687 C   0  0  0  0  0  0  0  0  0  0  0  0
   16.6372  -31.6428  -11.6422 C   0  0  0  0  0  0  0  0  0  0  0  0
   17.6983  -30.8575  -12.0281 O   0  0  0  0  0  0  0  0  0  0  0  0
   16.5340  -33.0367  -12.0615 C   0  0  0  0  0  0  0  0  0  0  0  0
   15.4378  -33.4342  -12.7735 N   0  0  0  0  0  0  0  0  0  0  0  0
   17.3907  -33.8940  -11.8458 O   0  0  0  0  0  0  0  0  0  0  0  0
   15.2737  -34.8377  -13.2292 C   0  0  2  0  0  0  0  0  0  0  0  0
   15.1618  -35.7351  -11.9808 C   0  0  0  0  0  0  0  0  0  0  0  0
   16.5404  -35.2143  -14.0397 C   0  0  0  0  0  0  0  0  0  0  0  0
   16.1665  -35.9734  -15.3351 C   0  0  0  0  0  0  0  0  0  0  0  0
   17.0718  -35.4570  -16.4698 C   0  0  0  0  0  0  0  0  0  0  0  0
   16.7821  -36.1731  -17.7958 C   0  0  0  0  0  0  0  0  0  0  0  0
   16.9480  -37.6906  -17.6428 C   0  0  0  0  0  0  0  0  0  0  0  0
   16.0456  -38.2217  -16.5220 C   0  0  0  0  0  0  0  0  0  0  0  0
   16.3259  -37.5020  -15.1949 C   0  0  0  0  0  0  0  0  0  0  0  0
   14.7356  -36.9862  -12.1915 N   0  0  0  0  0  0  0  0  0  0  0  0
   15.3169  -35.3234  -10.8299 O   0  0  0  0  0  0  0  0  0  0  0  0
   14.5742  -37.9642  -11.1163 C   0  0  0  0  0  0  0  0  0  0  0  0
   14.9039  -39.3591  -11.6796 C   0  0  2  0  0  0  0  0  0  0  0  0
   16.2866  -39.3296  -12.3657 C   0  0  0  0  0  0  0  0  0  0  0  0
   16.6010  -40.7497  -12.6161 N   0  0  0  0  0  0  0  0  0  0  0  0
   15.6084  -41.3503  -13.5425 C   0  0  0  0  0  0  0  0  0  0  0  0
   14.1930  -41.2082  -12.9206 C   0  0  0  0  0  0  0  0  0  0  0  0
   13.9574  -39.8233  -12.6390 O   0  0  0  0  0  0  0  0  0  0  0  0
   18.1750  -41.1923  -12.8464 S   0  0  0  0  0  0  0  0  0  0  0  0
   18.9504  -39.8668  -13.8094 C   0  0  0  0  0  0  0  0  0  0  0  0
   18.8144  -41.2624  -11.5813 O   0  0  0  0  0  0  0  0  0  0  0  0
   18.1874  -42.3803  -13.6257 O   0  0  0  0  0  0  0  0  0  0  0  0
   19.4020  -38.6699  -13.2246 C   0  0  0  0  0  0  0  0  0  0  0  0
   20.0000  -37.6931  -14.0293 C   0  0  0  0  0  0  0  0  0  0  0  0
   20.1437  -37.8869  -15.3957 C   0  0  0  0  0  0  0  0  0  0  0  0
   19.6901  -39.0614  -15.9782 C   0  0  0  0  0  0  0  0  0  0  0  0
   19.0987  -40.0423  -15.1902 C   0  0  0  0  0  0  0  0  0  0  0  0
   19.2517  -38.3862  -11.8186 C   0  0  0  0  0  0  0  0  0  0  0  0
   19.1326  -38.1090  -10.7151 N   0  0  0  0  0  0  0  0  0  0  0  0
   18.1387  -28.8543  -11.6149 H   0  0  0  0  0  0  0  0  0  0  0  0
   15.9948  -28.8272  -10.2830 H   0  0  0  0  0  0  0  0  0  0  0  0
   14.9543  -31.1837  -10.4433 H   0  0  0  0  0  0  0  0  0  0  0  0
   14.7290  -32.7638  -12.9930 H   0  0  0  0  0  0  0  0  0  0  0  0
   14.4559  -34.9269  -13.7978 H   0  0  0  0  0  0  0  0  0  0  0  0
   17.1269  -35.7972  -13.4772 H   0  0  0  0  0  0  0  0  0  0  0  0
   17.0340  -34.3790  -14.2814 H   0  0  0  0  0  0  0  0  0  0  0  0
   15.2149  -35.7689  -15.5645 H   0  0  0  0  0  0  0  0  0  0  0  0
   18.0271  -35.6131  -16.2189 H   0  0  0  0  0  0  0  0  0  0  0  0
   16.9145  -34.4767  -16.5895 H   0  0  0  0  0  0  0  0  0  0  0  0
   17.4182  -35.8424  -18.4929 H   0  0  0  0  0  0  0  0  0  0  0  0
   15.8440  -35.9727  -18.0785 H   0  0  0  0  0  0  0  0  0  0  0  0
   17.9015  -37.8963  -17.4225 H   0  0  0  0  0  0  0  0  0  0  0  0
   16.7009  -38.1367  -18.5031 H   0  0  0  0  0  0  0  0  0  0  0  0
   16.2138  -39.2004  -16.4041 H   0  0  0  0  0  0  0  0  0  0  0  0
   15.0895  -38.0760  -16.7765 H   0  0  0  0  0  0  0  0  0  0  0  0
   15.6837  -37.8335  -14.5037 H   0  0  0  0  0  0  0  0  0  0  0  0
   17.2613  -37.7059  -14.9059 H   0  0  0  0  0  0  0  0  0  0  0  0
   14.5176  -37.2650  -13.1268 H   0  0  0  0  0  0  0  0  0  0  0  0
   13.6315  -37.9479  -10.7829 H   0  0  0  0  0  0  0  0  0  0  0  0
   15.1973  -37.7468  -10.3650 H   0  0  0  0  0  0  0  0  0  0  0  0
   14.9368  -40.0106  -10.9216 H   0  0  0  0  0  0  0  0  0  0  0  0
   16.9711  -38.9160  -11.7653 H   0  0  0  0  0  0  0  0  0  0  0  0
   16.2448  -38.8194  -13.2247 H   0  0  0  0  0  0  0  0  0  0  0  0
   15.8195  -42.3180  -13.6798 H   0  0  0  0  0  0  0  0  0  0  0  0
   15.6385  -40.8745  -14.4216 H   0  0  0  0  0  0  0  0  0  0  0  0
   14.1418  -41.7381  -12.0741 H   0  0  0  0  0  0  0  0  0  0  0  0
   13.5060  -41.5430  -13.5657 H   0  0  0  0  0  0  0  0  0  0  0  0
   20.3280  -36.8446  -13.6140 H   0  0  0  0  0  0  0  0  0  0  0  0
   20.5733  -37.1814  -15.9593 H   0  0  0  0  0  0  0  0  0  0  0  0
   19.7883  -39.2022  -16.9634 H   0  0  0  0  0  0  0  0  0  0  0  0
   18.7742  -40.8867  -15.6166 H   0  0  0  0  0  0  0  0  0  0  0  0
  1  2  2  0  0  0  0
  1  5  1  0  0  0  0
  1 38  1  0  0  0  0
  2  3  1  0  0  0  0
  2 39  1  0  0  0  0
  3  4  2  0  0  0  0
  3 40  1  0  0  0  0
  4  5  1  0  0  0  0
  4  6  1  0  0  0  0
  6  7  1  0  0  0  0
  6  8  2  0  0  0  0
  7  9  1  0  0  0  0
  7 41  1  0  0  0  0
  9 10  1  0  0  0  0
  9 11  1  0  0  0  0
  9 42  1  0  0  0  0
 10 18  1  0  0  0  0
 10 19  2  0  0  0  0
 11 12  1  0  0  0  0
 11 43  1  0  0  0  0
 11 44  1  0  0  0  0
 12 13  1  0  0  0  0
 12 17  1  0  0  0  0
 12 45  1  0  0  0  0
 13 14  1  0  0  0  0
 13 46  1  0  0  0  0
 13 47  1  0  0  0  0
 14 15  1  0  0  0  0
 14 48  1  0  0  0  0
 14 49  1  0  0  0  0
 15 16  1  0  0  0  0
 15 50  1  0  0  0  0
 15 51  1  0  0  0  0
 16 17  1  0  0  0  0
 16 52  1  0  0  0  0
 16 53  1  0  0  0  0
 17 54  1  0  0  0  0
 17 55  1  0  0  0  0
 18 20  1  0  0  0  0
 18 56  1  0  0  0  0
 20 21  1  0  0  0  0
 20 57  1  0  0  0  0
 20 58  1  0  0  0  0
 21 22  1  0  0  0  0
 21 26  1  0  0  0  0
 21 59  1  0  0  0  0
 22 23  1  0  0  0  0
 22 60  1  0  0  0  0
 22 61  1  0  0  0  0
 23 24  1  0  0  0  0
 23 27  1  0  0  0  0
 24 25  1  0  0  0  0
 24 62  1  0  0  0  0
 24 63  1  0  0  0  0
 25 26  1  0  0  0  0
 25 64  1  0  0  0  0
 25 65  1  0  0  0  0
 27 28  1  0  0  0  0
 27 29  2  0  0  0  0
 27 30  2  0  0  0  0
 28 31  2  0  0  0  0
 28 35  1  0  0  0  0
 31 32  1  0  0  0  0
 31 36  1  0  0  0  0
 32 33  2  0  0  0  0
 32 66  1  0  0  0  0
 33 34  1  0  0  0  0
 33 67  1  0  0  0  0
 34 35  2  0  0  0  0
 34 68  1  0  0  0  0
 35 69  1  0  0  0  0
 36 37  3  0  0  0  0
M  END
> <BIOSOLVEIT.HYDE_ESTIMATED_AFFINITY_LOWER_BOUNDARY [nM]>
152375446599.312225

> <BIOSOLVEIT.HYDE_ESTIMATED_AFFINITY_UPPER_BOUNDARY [nM]>
15139401534581.425781

> <BIOSOLVEIT.HYDE_LIGAND_EFFICIENCY range: ++, +, 0, -, -->
--

> <BIOSOLVEIT.HYDE_LIGAND_LIPOPHILIC_EFFICIENCY range: ++, +, 0, -, -->
--

> <BIOSOLVEIT.INTER_CLASH range: red, yellow, green>
green

> <BIOSOLVEIT.INTRA_CLASH range: red, yellow, green>
red

> <BIOSOLVEIT.LOGP>
3.07658

> <BIOSOLVEIT.MOLECULAR WEIGHT>
528.626

> <BIOSOLVEIT.MOLECULE_CHECKSUM>
MTguMTYwMTsw

> <BIOSOLVEIT.TORSION_QUALITY range: red, yellow, green, not rotatable>
red

> <BIOSOLVEIT.TPSA>
141.74

$$$$
G1.sdf
b8Hydescor01032215413D 1   1.00000     0.00000     0
Hydescorer 1.1.2 b8048283
 69 72  0  0  0  0            999 V2000
   18.5108  -42.5018  -19.2605 C   0  0  0  0  0  0  0  0  0  0  0  0
   19.4796  -42.4374  -18.3173 C   0  0  0  0  0  0  0  0  0  0  0  0
   19.0831  -41.4777  -17.3856 C   0  0  0  0  0  0  0  0  0  0  0  0
   17.8780  -40.9841  -17.7956 C   0  0  0  0  0  0  0  0  0  0  0  0
   17.5288  -41.6260  -18.9608 O   0  0  0  0  0  0  0  0  0  0  0  0
   17.0176  -39.9640  -17.2052 C   0  0  0  0  0  0  0  0  0  0  0  0
   15.9336  -39.5235  -17.9106 N   0  0  0  0  0  0  0  0  0  0  0  0
   17.1781  -39.4814  -16.0842 O   0  0  0  0  0  0  0  0  0  0  0  0
   15.0199  -38.4879  -17.3653 C   0  0  2  0  0  0  0  0  0  0  0  0
   15.7786  -37.1464  -17.3415 C   0  0  0  0  0  0  0  0  0  0  0  0
   14.6472  -38.9108  -15.9211 C   0  0  0  0  0  0  0  0  0  0  0  0
   13.4203  -38.1192  -15.4090 C   0  0  0  0  0  0  0  0  0  0  0  0
   12.2030  -38.5182  -16.2650 C   0  0  0  0  0  0  0  0  0  0  0  0
   10.9294  -37.7915  -15.8119 C   0  0  0  0  0  0  0  0  0  0  0  0
   10.6418  -38.0693  -14.3307 C   0  0  0  0  0  0  0  0  0  0  0  0
   11.8420  -37.6686  -13.4637 C   0  0  0  0  0  0  0  0  0  0  0  0
   13.1207  -38.3867  -13.9189 C   0  0  0  0  0  0  0  0  0  0  0  0
   16.6957  -37.0057  -16.3767 N   0  0  0  0  0  0  0  0  0  0  0  0
   15.4933  -36.1896  -18.0635 O   0  0  0  0  0  0  0  0  0  0  0  0
   17.5020  -35.7965  -16.2146 C   0  0  0  0  0  0  0  0  0  0  0  0
   17.1116  -35.1318  -14.8812 C   0  0  2  0  0  0  0  0  0  0  0  0
   17.0601  -36.1967  -13.7646 C   0  0  0  0  0  0  0  0  0  0  0  0
   16.9479  -35.4144  -12.5180 N   0  0  0  0  0  0  0  0  0  0  0  0
   15.6875  -34.6298  -12.5039 C   0  0  0  0  0  0  0  0  0  0  0  0
   15.6689  -33.6899  -13.7393 C   0  0  0  0  0  0  0  0  0  0  0  0
   15.8417  -34.4856  -14.9182 O   0  0  0  0  0  0  0  0  0  0  0  0
   17.3856  -36.1176  -11.0898 S   0  0  0  0  0  0  0  0  0  0  0  0
   18.5645  -37.4322  -11.4992 C   0  0  0  0  0  0  0  0  0  0  0  0
   18.0510  -35.1487  -10.2942 O   0  0  0  0  0  0  0  0  0  0  0  0
   16.2280  -36.7132  -10.5207 O   0  0  0  0  0  0  0  0  0  0  0  0
   18.1603  -38.6865  -11.9913 C   0  0  0  0  0  0  0  0  0  0  0  0
   19.1277  -39.6513  -12.2950 C   0  0  0  0  0  0  0  0  0  0  0  0
   20.4774  -39.3895  -12.1078 C   0  0  0  0  0  0  0  0  0  0  0  0
   20.8798  -38.1577  -11.6125 C   0  0  0  0  0  0  0  0  0  0  0  0
   19.9301  -37.1880  -11.3115 C   0  0  0  0  0  0  0  0  0  0  0  0
   16.7742  -39.0397  -12.1753 C   0  0  0  0  0  0  0  0  0  0  0  0
   15.6882  -39.3711  -12.3145 N   0  0  0  0  0  0  0  0  0  0  0  0
   18.5212  -43.1059  -20.0573 H   0  0  0  0  0  0  0  0  0  0  0  0
   20.3215  -42.9765  -18.2929 H   0  0  0  0  0  0  0  0  0  0  0  0
   19.5886  -41.2020  -16.5680 H   0  0  0  0  0  0  0  0  0  0  0  0
   15.7512  -39.9076  -18.8157 H   0  0  0  0  0  0  0  0  0  0  0  0
   14.1983  -38.4145  -17.9307 H   0  0  0  0  0  0  0  0  0  0  0  0
   15.4250  -38.7342  -15.3179 H   0  0  0  0  0  0  0  0  0  0  0  0
   14.4331  -39.8875  -15.9116 H   0  0  0  0  0  0  0  0  0  0  0  0
   13.5937  -37.1420  -15.5320 H   0  0  0  0  0  0  0  0  0  0  0  0
   12.0594  -39.5046  -16.1848 H   0  0  0  0  0  0  0  0  0  0  0  0
   12.3873  -38.2847  -17.2197 H   0  0  0  0  0  0  0  0  0  0  0  0
   10.1570  -38.1102  -16.3613 H   0  0  0  0  0  0  0  0  0  0  0  0
   11.0488  -36.8075  -15.9438 H   0  0  0  0  0  0  0  0  0  0  0  0
   10.4593  -39.0449  -14.2086 H   0  0  0  0  0  0  0  0  0  0  0  0
    9.8407  -37.5423  -14.0469 H   0  0  0  0  0  0  0  0  0  0  0  0
   11.6526  -37.9114  -12.5123 H   0  0  0  0  0  0  0  0  0  0  0  0
   11.9799  -36.6806  -13.5344 H   0  0  0  0  0  0  0  0  0  0  0  0
   13.8897  -38.0604  -13.3692 H   0  0  0  0  0  0  0  0  0  0  0  0
   13.0069  -39.3707  -13.7820 H   0  0  0  0  0  0  0  0  0  0  0  0
   16.8359  -37.7620  -15.7376 H   0  0  0  0  0  0  0  0  0  0  0  0
   17.3242  -35.1673  -16.9711 H   0  0  0  0  0  0  0  0  0  0  0  0
   18.4728  -36.0364  -16.2016 H   0  0  0  0  0  0  0  0  0  0  0  0
   17.8085  -34.4545  -14.6454 H   0  0  0  0  0  0  0  0  0  0  0  0
   17.8941  -36.7483  -13.7626 H   0  0  0  0  0  0  0  0  0  0  0  0
   16.2661  -36.7934  -13.8808 H   0  0  0  0  0  0  0  0  0  0  0  0
   15.6402  -34.0851  -11.6665 H   0  0  0  0  0  0  0  0  0  0  0  0
   14.9047  -35.2509  -12.5422 H   0  0  0  0  0  0  0  0  0  0  0  0
   16.4128  -33.0253  -13.6688 H   0  0  0  0  0  0  0  0  0  0  0  0
   14.7939  -33.2076  -13.7831 H   0  0  0  0  0  0  0  0  0  0  0  0
   18.8424  -40.5410  -12.6515 H   0  0  0  0  0  0  0  0  0  0  0  0
   21.1586  -40.0873  -12.3293 H   0  0  0  0  0  0  0  0  0  0  0  0
   21.8515  -37.9676  -11.4722 H   0  0  0  0  0  0  0  0  0  0  0  0
   20.2272  -36.3022  -10.9552 H   0  0  0  0  0  0  0  0  0  0  0  0
  1  2  2  0  0  0  0
  1  5  1  0  0  0  0
  1 38  1  0  0  0  0
  2  3  1  0  0  0  0
  2 39  1  0  0  0  0
  3  4  2  0  0  0  0
  3 40  1  0  0  0  0
  4  5  1  0  0  0  0
  4  6  1  0  0  0  0
  6  7  1  0  0  0  0
  6  8  2  0  0  0  0
  7  9  1  0  0  0  0
  7 41  1  0  0  0  0
  9 10  1  0  0  0  0
  9 11  1  0  0  0  0
  9 42  1  0  0  0  0
 10 18  1  0  0  0  0
 10 19  2  0  0  0  0
 11 12  1  0  0  0  0
 11 43  1  0  0  0  0
 11 44  1  0  0  0  0
 12 13  1  0  0  0  0
 12 17  1  0  0  0  0
 12 45  1  0  0  0  0
 13 14  1  0  0  0  0
 13 46  1  0  0  0  0
 13 47  1  0  0  0  0
 14 15  1  0  0  0  0
 14 48  1  0  0  0  0
 14 49  1  0  0  0  0
 15 16  1  0  0  0  0
 15 50  1  0  0  0  0
 15 51  1  0  0  0  0
 16 17  1  0  0  0  0
 16 52  1  0  0  0  0
 16 53  1  0  0  0  0
 17 54  1  0  0  0  0
 17 55  1  0  0  0  0
 18 20  1  0  0  0  0
 18 56  1  0  0  0  0
 20 21  1  0  0  0  0
 20 57  1  0  0  0  0
 20 58  1  0  0  0  0
 21 22  1  0  0  0  0
 21 26  1  0  0  0  0
 21 59  1  0  0  0  0
 22 23  1  0  0  0  0
 22 60  1  0  0  0  0
 22 61  1  0  0  0  0
 23 24  1  0  0  0  0
 23 27  1  0  0  0  0
 24 25  1  0  0  0  0
 24 62  1  0  0  0  0
 24 63  1  0  0  0  0
 25 26  1  0  0  0  0
 25 64  1  0  0  0  0
 25 65  1  0  0  0  0
 27 28  1  0  0  0  0
 27 29  2  0  0  0  0
 27 30  2  0  0  0  0
 28 31  2  0  0  0  0
 28 35  1  0  0  0  0
 31 32  1  0  0  0  0
 31 36  1  0  0  0  0
 32 33  2  0  0  0  0
 32 66  1  0  0  0  0
 33 34  1  0  0  0  0
 33 67  1  0  0  0  0
 34 35  2  0  0  0  0
 34 68  1  0  0  0  0
 35 69  1  0  0  0  0
 36 37  3  0  0  0  0
M  END
> <BIOSOLVEIT.HYDE_ESTIMATED_AFFINITY_LOWER_BOUNDARY [nM]>
257376896123.413239

> <BIOSOLVEIT.HYDE_ESTIMATED_AFFINITY_UPPER_BOUNDARY [nM]>
25571916362502.664063

> <BIOSOLVEIT.HYDE_LIGAND_EFFICIENCY range: ++, +, 0, -, -->
--

> <BIOSOLVEIT.HYDE_LIGAND_LIPOPHILIC_EFFICIENCY range: ++, +, 0, -, -->
--

> <BIOSOLVEIT.INTER_CLASH range: red, yellow, green>
green

> <BIOSOLVEIT.INTRA_CLASH range: red, yellow, green>
red

> <BIOSOLVEIT.LOGP>
3.07658

> <BIOSOLVEIT.MOLECULAR WEIGHT>
528.626

> <BIOSOLVEIT.MOLECULE_CHECKSUM>
MTkuNDU5Njsw

> <BIOSOLVEIT.TORSION_QUALITY range: red, yellow, green, not rotatable>
red

> <BIOSOLVEIT.TPSA>
141.74

$$$$
Z14487066.****
b8Hydescor01032215413D 1   1.00000     0.00000     0
Hydescorer 1.1.2 b8048283
 44 46  0  0  0  0            999 V2000
   16.2861  -34.3218   -9.5235 C   0  0  0  0  0  0  0  0  0  0  0  0
   16.2655  -33.0279  -10.1398 C   0  0  0  0  0  0  0  0  0  0  0  0
   16.7299  -32.8405  -11.3303 N   0  0  0  0  0  0  0  0  0  0  0  0
   17.2576  -33.9296  -12.0120 C   0  0  0  0  0  0  0  0  0  0  0  0
   17.2982  -35.1758  -11.4561 N   0  0  0  0  0  0  0  0  0  0  0  0
   16.8032  -35.4117  -10.1734 C   0  0  0  0  0  0  0  0  0  0  0  0
   15.6897  -31.8487   -9.3936 C   0  0  0  0  0  0  0  0  0  0  0  0
   16.8839  -36.8300   -9.6339 C   0  0  0  0  0  0  0  0  0  0  0  0
   17.7749  -33.9886  -13.1999 N   0  0  0  0  0  0  0  0  0  0  0  0
   18.1164  -35.2844  -13.3203 C   0  0  0  0  0  0  0  0  0  0  0  0
   17.8576  -36.0537  -12.2974 N   0  0  0  0  0  0  0  0  0  0  0  0
   18.8810  -35.9047  -14.7609 S   0  0  0  0  0  0  0  0  0  0  0  0
   17.6028  -35.5487  -16.0278 C   0  0  0  0  0  0  0  0  0  0  0  0
   16.8195  -36.8312  -16.1892 C   0  0  0  0  0  0  0  0  0  0  0  0
   15.7531  -37.0001  -15.3443 N   0  0  0  0  0  0  0  0  0  0  0  0
   17.0865  -37.6442  -17.0437 O   0  0  0  0  0  0  0  0  0  0  0  0
   14.9130  -38.0717  -15.3123 C   0  0  0  0  0  0  0  0  0  0  0  0
   13.9549  -37.9465  -14.3660 N   0  0  0  0  0  0  0  0  0  0  0  0
   15.0238  -39.0612  -16.0159 O   0  0  0  0  0  0  0  0  0  0  0  0
   12.9551  -38.9843  -14.1677 C   0  0  0  0  0  0  0  0  0  0  0  0
   12.4765  -38.9048  -12.7199 C   0  0  0  0  0  0  0  0  0  0  0  0
   11.4725  -37.7441  -12.6626 C   0  0  0  0  0  0  0  0  0  0  0  0
   11.0037  -37.5177  -14.1062 C   0  0  0  0  0  0  0  0  0  0  0  0
   11.7011  -38.5951  -14.9460 C   0  0  0  0  0  0  0  0  0  0  0  0
   15.9158  -34.4313   -8.6011 H   0  0  0  0  0  0  0  0  0  0  0  0
   15.7535  -31.0299   -9.9641 H   0  0  0  0  0  0  0  0  0  0  0  0
   14.7307  -32.0286   -9.1749 H   0  0  0  0  0  0  0  0  0  0  0  0
   16.2035  -31.7064   -8.5476 H   0  0  0  0  0  0  0  0  0  0  0  0
   17.3069  -37.4235  -10.3186 H   0  0  0  0  0  0  0  0  0  0  0  0
   17.4348  -36.8384   -8.7994 H   0  0  0  0  0  0  0  0  0  0  0  0
   15.9629  -37.1615   -9.4287 H   0  0  0  0  0  0  0  0  0  0  0  0
   18.0320  -35.2908  -16.8934 H   0  0  0  0  0  0  0  0  0  0  0  0
   17.0030  -34.8101  -15.7200 H   0  0  0  0  0  0  0  0  0  0  0  0
   15.5750  -36.2662  -14.6888 H   0  0  0  0  0  0  0  0  0  0  0  0
   13.9334  -37.1270  -13.7933 H   0  0  0  0  0  0  0  0  0  0  0  0
   13.2918  -39.8938  -14.4116 H   0  0  0  0  0  0  0  0  0  0  0  0
   13.2480  -38.7260  -12.1093 H   0  0  0  0  0  0  0  0  0  0  0  0
   12.0325  -39.7605  -12.4542 H   0  0  0  0  0  0  0  0  0  0  0  0
   11.9140  -36.9201  -12.3076 H   0  0  0  0  0  0  0  0  0  0  0  0
   10.6967  -37.9844  -12.0792 H   0  0  0  0  0  0  0  0  0  0  0  0
   11.2692  -36.6059  -14.4195 H   0  0  0  0  0  0  0  0  0  0  0  0
   10.0105  -37.6158  -14.1692 H   0  0  0  0  0  0  0  0  0  0  0  0
   11.1028  -39.3881  -15.0611 H   0  0  0  0  0  0  0  0  0  0  0  0
   11.9480  -38.2307  -15.8439 H   0  0  0  0  0  0  0  0  0  0  0  0
  1  2  1  0  0  0  0
  1  6  2  0  0  0  0
  1 25  1  0  0  0  0
  2  3  2  0  0  0  0
  2  7  1  0  0  0  0
  3  4  1  0  0  0  0
  4  5  1  0  0  0  0
  4  9  2  0  0  0  0
  5  6  1  0  0  0  0
  5 11  1  0  0  0  0
  6  8  1  0  0  0  0
  7 26  1  0  0  0  0
  7 27  1  0  0  0  0
  7 28  1  0  0  0  0
  8 29  1  0  0  0  0
  8 30  1  0  0  0  0
  8 31  1  0  0  0  0
  9 10  1  0  0  0  0
 10 11  2  0  0  0  0
 10 12  1  0  0  0  0
 12 13  1  0  0  0  0
 13 14  1  0  0  0  0
 13 32  1  0  0  0  0
 13 33  1  0  0  0  0
 14 15  1  0  0  0  0
 14 16  2  0  0  0  0
 15 17  1  0  0  0  0
 15 34  1  0  0  0  0
 17 18  1  0  0  0  0
 17 19  2  0  0  0  0
 18 20  1  0  0  0  0
 18 35  1  0  0  0  0
 20 21  1  0  0  0  0
 20 24  1  0  0  0  0
 20 36  1  0  0  0  0
 21 22  1  0  0  0  0
 21 37  1  0  0  0  0
 21 38  1  0  0  0  0
 22 23  1  0  0  0  0
 22 39  1  0  0  0  0
 22 40  1  0  0  0  0
 23 24  1  0  0  0  0
 23 41  1  0  0  0  0
 23 42  1  0  0  0  0
 24 43  1  0  0  0  0
 24 44  1  0  0  0  0
M  END
> <BIOSOLVEIT.HYDE_ESTIMATED_AFFINITY_LOWER_BOUNDARY [nM]>
1773344753.538635

> <BIOSOLVEIT.HYDE_ESTIMATED_AFFINITY_UPPER_BOUNDARY [nM]>
176192286108.029175

> <BIOSOLVEIT.HYDE_LIGAND_EFFICIENCY range: ++, +, 0, -, -->
--

> <BIOSOLVEIT.HYDE_LIGAND_LIPOPHILIC_EFFICIENCY range: ++, +, 0, -, -->
--

> <BIOSOLVEIT.INTER_CLASH range: red, yellow, green>
green

> <BIOSOLVEIT.INTRA_CLASH range: red, yellow, green>
yellow

> <BIOSOLVEIT.LOGP>
1.60164

> <BIOSOLVEIT.MOLECULAR WEIGHT>
348.428

> <BIOSOLVEIT.MOLECULE_CHECKSUM>
Ny4xMjAxMTsw

> <BIOSOLVEIT.TORSION_QUALITY range: red, yellow, green, not rotatable>
green

> <BIOSOLVEIT.TPSA>
101.8

$$$$
Z14487066.****
b8Hydescor01032215413D 1   1.00000     0.00000     0
Hydescorer 1.1.2 b8048283
 44 46  0  0  0  0            999 V2000
   15.2304  -42.4364  -13.3295 C   0  0  0  0  0  0  0  0  0  0  0  0
   14.8368  -41.7616  -12.1277 C   0  0  0  0  0  0  0  0  0  0  0  0
   15.6095  -40.9001  -11.5540 N   0  0  0  0  0  0  0  0  0  0  0  0
   16.8457  -40.6360  -12.1297 C   0  0  0  0  0  0  0  0  0  0  0  0
   17.2566  -41.2618  -13.2712 N   0  0  0  0  0  0  0  0  0  0  0  0
   16.4451  -42.1957  -13.9159 C   0  0  0  0  0  0  0  0  0  0  0  0
   13.4916  -42.0528  -11.5078 C   0  0  0  0  0  0  0  0  0  0  0  0
   16.9793  -42.8410  -15.1837 C   0  0  0  0  0  0  0  0  0  0  0  0
   17.7799  -39.8235  -11.7432 N   0  0  0  0  0  0  0  0  0  0  0  0
   18.7354  -39.9912  -12.6755 C   0  0  0  0  0  0  0  0  0  0  0  0
   18.4805  -40.8512  -13.6244 N   0  0  0  0  0  0  0  0  0  0  0  0
   20.2454  -39.1188  -12.6131 S   0  0  0  0  0  0  0  0  0  0  0  0
   19.7902  -37.6878  -11.5592 C   0  0  0  0  0  0  0  0  0  0  0  0
   18.9647  -36.7783  -12.4400 C   0  0  0  0  0  0  0  0  0  0  0  0
   18.3373  -35.7333  -11.8125 N   0  0  0  0  0  0  0  0  0  0  0  0
   18.8951  -36.9328  -13.6375 O   0  0  0  0  0  0  0  0  0  0  0  0
   17.5476  -34.7950  -12.4051 C   0  0  0  0  0  0  0  0  0  0  0  0
   17.0711  -33.8900  -11.5202 N   0  0  0  0  0  0  0  0  0  0  0  0
   17.2539  -34.7828  -13.5882 O   0  0  0  0  0  0  0  0  0  0  0  0
   16.2060  -32.8026  -11.9506 C   0  0  0  0  0  0  0  0  0  0  0  0
   14.8758  -32.9412  -11.2141 C   0  0  0  0  0  0  0  0  0  0  0  0
   15.1042  -32.3759   -9.8046 C   0  0  0  0  0  0  0  0  0  0  0  0
   16.3442  -31.4774   -9.9042 C   0  0  0  0  0  0  0  0  0  0  0  0
   16.7582  -31.4986  -11.3810 C   0  0  0  0  0  0  0  0  0  0  0  0
   14.6061  -43.0959  -13.7482 H   0  0  0  0  0  0  0  0  0  0  0  0
   13.3787  -41.5006  -10.6817 H   0  0  0  0  0  0  0  0  0  0  0  0
   12.7681  -41.8279  -12.1605 H   0  0  0  0  0  0  0  0  0  0  0  0
   13.4368  -43.0227  -11.2707 H   0  0  0  0  0  0  0  0  0  0  0  0
   17.8908  -42.4809  -15.3825 H   0  0  0  0  0  0  0  0  0  0  0  0
   17.0325  -43.8314  -15.0567 H   0  0  0  0  0  0  0  0  0  0  0  0
   16.3660  -42.6353  -15.9464 H   0  0  0  0  0  0  0  0  0  0  0  0
   20.6112  -37.2140  -11.2408 H   0  0  0  0  0  0  0  0  0  0  0  0
   19.2540  -37.9913  -10.7716 H   0  0  0  0  0  0  0  0  0  0  0  0
   18.4724  -35.6521  -10.8250 H   0  0  0  0  0  0  0  0  0  0  0  0
   17.3175  -33.9697  -10.5543 H   0  0  0  0  0  0  0  0  0  0  0  0
   16.0939  -32.7710  -12.9438 H   0  0  0  0  0  0  0  0  0  0  0  0
   14.6069  -33.9030  -11.1624 H   0  0  0  0  0  0  0  0  0  0  0  0
   14.1632  -32.4209  -11.6849 H   0  0  0  0  0  0  0  0  0  0  0  0
   15.2646  -33.1184   -9.1543 H   0  0  0  0  0  0  0  0  0  0  0  0
   14.3110  -31.8420   -9.5118 H   0  0  0  0  0  0  0  0  0  0  0  0
   17.0809  -31.8358   -9.3309 H   0  0  0  0  0  0  0  0  0  0  0  0
   16.1226  -30.5451   -9.6180 H   0  0  0  0  0  0  0  0  0  0  0  0
   16.3669  -30.7149  -11.8633 H   0  0  0  0  0  0  0  0  0  0  0  0
   17.7545  -31.4772  -11.4633 H   0  0  0  0  0  0  0  0  0  0  0  0
  1  2  1  0  0  0  0
  1  6  2  0  0  0  0
  1 25  1  0  0  0  0
  2  3  2  0  0  0  0
  2  7  1  0  0  0  0
  3  4  1  0  0  0  0
  4  5  1  0  0  0  0
  4  9  2  0  0  0  0
  5  6  1  0  0  0  0
  5 11  1  0  0  0  0
  6  8  1  0  0  0  0
  7 26  1  0  0  0  0
  7 27  1  0  0  0  0
  7 28  1  0  0  0  0
  8 29  1  0  0  0  0
  8 30  1  0  0  0  0
  8 31  1  0  0  0  0
  9 10  1  0  0  0  0
 10 11  2  0  0  0  0
 10 12  1  0  0  0  0
 12 13  1  0  0  0  0
 13 14  1  0  0  0  0
 13 32  1  0  0  0  0
 13 33  1  0  0  0  0
 14 15  1  0  0  0  0
 14 16  2  0  0  0  0
 15 17  1  0  0  0  0
 15 34  1  0  0  0  0
 17 18  1  0  0  0  0
 17 19  2  0  0  0  0
 18 20  1  0  0  0  0
 18 35  1  0  0  0  0
 20 21  1  0  0  0  0
 20 24  1  0  0  0  0
 20 36  1  0  0  0  0
 21 22  1  0  0  0  0
 21 37  1  0  0  0  0
 21 38  1  0  0  0  0
 22 23  1  0  0  0  0
 22 39  1  0  0  0  0
 22 40  1  0  0  0  0
 23 24  1  0  0  0  0
 23 41  1  0  0  0  0
 23 42  1  0  0  0  0
 24 43  1  0  0  0  0
 24 44  1  0  0  0  0
M  END
> <BIOSOLVEIT.HYDE_ESTIMATED_AFFINITY_LOWER_BOUNDARY [nM]>
204063465.666995

> <BIOSOLVEIT.HYDE_ESTIMATED_AFFINITY_UPPER_BOUNDARY [nM]>
20274911832.710262

> <BIOSOLVEIT.HYDE_LIGAND_EFFICIENCY range: ++, +, 0, -, -->
--

> <BIOSOLVEIT.HYDE_LIGAND_LIPOPHILIC_EFFICIENCY range: ++, +, 0, -, -->
--

> <BIOSOLVEIT.INTER_CLASH range: red, yellow, green>
green

> <BIOSOLVEIT.INTRA_CLASH range: red, yellow, green>
yellow

> <BIOSOLVEIT.LOGP>
1.60164

> <BIOSOLVEIT.MOLECULAR WEIGHT>
348.428

> <BIOSOLVEIT.MOLECULE_CHECKSUM>
MS43NjAxMzsw

> <BIOSOLVEIT.TORSION_QUALITY range: red, yellow, green, not rotatable>
green

> <BIOSOLVEIT.TPSA>
101.8

$$$$
Z14487066.****
b8Hydescor01032215413D 1   1.00000     0.00000     0
Hydescorer 1.1.2 b8048283
 44 46  0  0  0  0            999 V2000
   16.2654  -33.9932  -11.6288 C   0  0  0  0  0  0  0  0  0  0  0  0
   17.2960  -34.9583  -11.3814 C   0  0  0  0  0  0  0  0  0  0  0  0
   17.7990  -35.6675  -12.3364 N   0  0  0  0  0  0  0  0  0  0  0  0
   17.3169  -35.4764  -13.6250 C   0  0  0  0  0  0  0  0  0  0  0  0
   16.3336  -34.5700  -13.8985 N   0  0  0  0  0  0  0  0  0  0  0  0
   15.7709  -33.7873  -12.8900 C   0  0  0  0  0  0  0  0  0  0  0  0
   17.8159  -35.1602   -9.9788 C   0  0  0  0  0  0  0  0  0  0  0  0
   14.6848  -32.8001  -13.2837 C   0  0  0  0  0  0  0  0  0  0  0  0
   17.6605  -36.0615  -14.7304 N   0  0  0  0  0  0  0  0  0  0  0  0
   16.8607  -35.4818  -15.6440 C   0  0  0  0  0  0  0  0  0  0  0  0
   16.0322  -34.5741  -15.2025 N   0  0  0  0  0  0  0  0  0  0  0  0
   16.9132  -35.9299  -17.3297 S   0  0  0  0  0  0  0  0  0  0  0  0
   15.8653  -37.4357  -17.3338 C   0  0  0  0  0  0  0  0  0  0  0  0
   16.6676  -38.4934  -16.6113 C   0  0  0  0  0  0  0  0  0  0  0  0
   15.9763  -39.2774  -15.7243 N   0  0  0  0  0  0  0  0  0  0  0  0
   17.8430  -38.6719  -16.8330 O   0  0  0  0  0  0  0  0  0  0  0  0
   16.4930  -40.2855  -14.9680 C   0  0  0  0  0  0  0  0  0  0  0  0
   15.5585  -40.8748  -14.1879 N   0  0  0  0  0  0  0  0  0  0  0  0
   17.6697  -40.6042  -14.9477 O   0  0  0  0  0  0  0  0  0  0  0  0
   15.9050  -41.9756  -13.3024 C   0  0  0  0  0  0  0  0  0  0  0  0
   16.2813  -41.3860  -11.9452 C   0  0  0  0  0  0  0  0  0  0  0  0
   14.9581  -41.0604  -11.2367 C   0  0  0  0  0  0  0  0  0  0  0  0
   13.8852  -41.9094  -11.9317 C   0  0  0  0  0  0  0  0  0  0  0  0
   14.6292  -42.7482  -12.9784 C   0  0  0  0  0  0  0  0  0  0  0  0
   15.9002  -33.4597  -10.8660 H   0  0  0  0  0  0  0  0  0  0  0  0
   18.5259  -35.8643   -9.9846 H   0  0  0  0  0  0  0  0  0  0  0  0
   18.2005  -34.3019   -9.6391 H   0  0  0  0  0  0  0  0  0  0  0  0
   17.0658  -35.4481   -9.3835 H   0  0  0  0  0  0  0  0  0  0  0  0
   14.5212  -32.8598  -14.2685 H   0  0  0  0  0  0  0  0  0  0  0  0
   13.8419  -33.0183  -12.7919 H   0  0  0  0  0  0  0  0  0  0  0  0
   14.9767  -31.8727  -13.0499 H   0  0  0  0  0  0  0  0  0  0  0  0
   15.6728  -37.7242  -18.2718 H   0  0  0  0  0  0  0  0  0  0  0  0
   15.0047  -37.2630  -16.8549 H   0  0  0  0  0  0  0  0  0  0  0  0
   14.9990  -39.0914  -15.6228 H   0  0  0  0  0  0  0  0  0  0  0  0
   14.6138  -40.5484  -14.2204 H   0  0  0  0  0  0  0  0  0  0  0  0
   16.6231  -42.5605  -13.6795 H   0  0  0  0  0  0  0  0  0  0  0  0
   16.8230  -40.5543  -12.0669 H   0  0  0  0  0  0  0  0  0  0  0  0
   16.8054  -42.0502  -11.4122 H   0  0  0  0  0  0  0  0  0  0  0  0
   14.7449  -40.0878  -11.3289 H   0  0  0  0  0  0  0  0  0  0  0  0
   15.0154  -41.2987  -10.2672 H   0  0  0  0  0  0  0  0  0  0  0  0
   13.2083  -41.3213  -12.3740 H   0  0  0  0  0  0  0  0  0  0  0  0
   13.4287  -42.5038  -11.2696 H   0  0  0  0  0  0  0  0  0  0  0  0
   14.8529  -43.6494  -12.6072 H   0  0  0  0  0  0  0  0  0  0  0  0
   14.0694  -42.8558  -13.8000 H   0  0  0  0  0  0  0  0  0  0  0  0
  1  2  1  0  0  0  0
  1  6  2  0  0  0  0
  1 25  1  0  0  0  0
  2  3  2  0  0  0  0
  2  7  1  0  0  0  0
  3  4  1  0  0  0  0
  4  5  1  0  0  0  0
  4  9  2  0  0  0  0
  5  6  1  0  0  0  0
  5 11  1  0  0  0  0
  6  8  1  0  0  0  0
  7 26  1  0  0  0  0
  7 27  1  0  0  0  0
  7 28  1  0  0  0  0
  8 29  1  0  0  0  0
  8 30  1  0  0  0  0
  8 31  1  0  0  0  0
  9 10  1  0  0  0  0
 10 11  2  0  0  0  0
 10 12  1  0  0  0  0
 12 13  1  0  0  0  0
 13 14  1  0  0  0  0
 13 32  1  0  0  0  0
 13 33  1  0  0  0  0
 14 15  1  0  0  0  0
 14 16  2  0  0  0  0
 15 17  1  0  0  0  0
 15 34  1  0  0  0  0
 17 18  1  0  0  0  0
 17 19  2  0  0  0  0
 18 20  1  0  0  0  0
 18 35  1  0  0  0  0
 20 21  1  0  0  0  0
 20 24  1  0  0  0  0
 20 36  1  0  0  0  0
 21 22  1  0  0  0  0
 21 37  1  0  0  0  0
 21 38  1  0  0  0  0
 22 23  1  0  0  0  0
 22 39  1  0  0  0  0
 22 40  1  0  0  0  0
 23 24  1  0  0  0  0
 23 41  1  0  0  0  0
 23 42  1  0  0  0  0
 24 43  1  0  0  0  0
 24 44  1  0  0  0  0
M  END
> <BIOSOLVEIT.HYDE_ESTIMATED_AFFINITY_LOWER_BOUNDARY [nM]>
2245080.382449

> <BIOSOLVEIT.HYDE_ESTIMATED_AFFINITY_UPPER_BOUNDARY [nM]>
223062009.962047

> <BIOSOLVEIT.HYDE_LIGAND_EFFICIENCY range: ++, +, 0, -, -->
--

> <BIOSOLVEIT.HYDE_LIGAND_LIPOPHILIC_EFFICIENCY range: ++, +, 0, -, -->
--

> <BIOSOLVEIT.INTER_CLASH range: red, yellow, green>
green

> <BIOSOLVEIT.INTRA_CLASH range: red, yellow, green>
yellow

> <BIOSOLVEIT.LOGP>
1.60164

> <BIOSOLVEIT.MOLECULAR WEIGHT>
348.428

> <BIOSOLVEIT.MOLECULE_CHECKSUM>
LTkuNDE5MTk7MC4zOTI0NjY=

> <BIOSOLVEIT.TORSION_QUALITY range: red, yellow, green, not rotatable>
yellow

> <BIOSOLVEIT.TPSA>
101.8

$$$$
Z1544592819.****
b8Hydescor01032215413D 1   1.00000     0.00000     0
Hydescorer 1.1.2 b8048283
 45 47  0  0  0  0            999 V2000
   18.7272  -39.4828  -14.6155 C   0  0  0  0  0  0  0  0  0  0  0  0
   19.7945  -39.9346  -13.8418 C   0  0  0  0  0  0  0  0  0  0  0  0
   19.7404  -39.7802  -12.4533 C   0  0  0  0  0  0  0  0  0  0  0  0
   18.6483  -39.1889  -11.8224 C   0  0  0  0  0  0  0  0  0  0  0  0
   17.5987  -38.7414  -12.6195 C   0  0  0  0  0  0  0  0  0  0  0  0
   17.6258  -38.8853  -14.0072 C   0  0  0  0  0  0  0  0  0  0  0  0
   20.8388  -40.2383  -11.6590 N   0  0  0  0  0  0  0  0  0  0  0  0
   21.9096  -39.5187  -11.2740 C   0  0  0  0  0  0  0  0  0  0  0  0
   22.7062  -40.2629  -10.5647 N   0  0  0  0  0  0  0  0  0  0  0  0
   22.1219  -41.5140  -10.4889 N   0  0  0  0  0  0  0  0  0  0  0  0
   21.0135  -41.4745  -11.1451 C   0  0  0  0  0  0  0  0  0  0  0  0
   22.1225  -37.8422  -11.7037 S   0  0  0  0  0  0  0  0  0  0  0  0
   20.0244  -42.6035  -11.3396 C   0  0  0  0  0  0  0  0  0  0  0  0
   16.4902  -38.1328  -12.0123 N   0  0  0  0  0  0  0  0  0  0  0  0
   16.3203  -36.7930  -11.8457 C   0  0  0  0  0  0  0  0  0  0  0  0
   17.2179  -36.0996  -12.2738 O   0  0  0  0  0  0  0  0  0  0  0  0
   15.0856  -36.2114  -11.1752 C   0  0  0  0  0  0  0  0  0  0  0  0
   15.1443  -34.6856  -11.2821 C   0  0  0  0  0  0  0  0  0  0  0  0
   14.5846  -33.9882  -12.3635 C   0  0  0  0  0  0  0  0  0  0  0  0
   14.6600  -32.5966  -12.3929 C   0  0  0  0  0  0  0  0  0  0  0  0
   15.2899  -31.8969  -11.3712 C   0  0  0  0  0  0  0  0  0  0  0  0
   15.8601  -32.5809  -10.3049 C   0  0  0  0  0  0  0  0  0  0  0  0
   15.7922  -33.9702  -10.2714 C   0  0  0  0  0  0  0  0  0  0  0  0
   13.8934  -34.6965  -13.5151 C   0  0  0  0  0  0  0  0  0  0  0  0
   16.5660  -31.8269   -9.1990 C   0  0  0  0  0  0  0  0  0  0  0  0
   18.7522  -39.5877  -15.6097 H   0  0  0  0  0  0  0  0  0  0  0  0
   20.5881  -40.3634  -14.2737 H   0  0  0  0  0  0  0  0  0  0  0  0
   18.6192  -39.0890  -10.8278 H   0  0  0  0  0  0  0  0  0  0  0  0
   16.8591  -38.5615  -14.5616 H   0  0  0  0  0  0  0  0  0  0  0  0
   20.3578  -43.4228  -10.8732 H   0  0  0  0  0  0  0  0  0  0  0  0
   19.1384  -42.3399  -10.9580 H   0  0  0  0  0  0  0  0  0  0  0  0
   19.9234  -42.7937  -12.3161 H   0  0  0  0  0  0  0  0  0  0  0  0
   15.7653  -38.7328  -11.6741 H   0  0  0  0  0  0  0  0  0  0  0  0
   15.0666  -36.4811  -10.2124 H   0  0  0  0  0  0  0  0  0  0  0  0
   14.2632  -36.5496  -11.6324 H   0  0  0  0  0  0  0  0  0  0  0  0
   14.2558  -32.0960  -13.1585 H   0  0  0  0  0  0  0  0  0  0  0  0
   15.3331  -30.8983  -11.4035 H   0  0  0  0  0  0  0  0  0  0  0  0
   16.2140  -34.4649   -9.5116 H   0  0  0  0  0  0  0  0  0  0  0  0
   13.5681  -34.0198  -14.1756 H   0  0  0  0  0  0  0  0  0  0  0  0
   14.5399  -35.3148  -13.9623 H   0  0  0  0  0  0  0  0  0  0  0  0
   13.1172  -35.2215  -13.1658 H   0  0  0  0  0  0  0  0  0  0  0  0
   16.9116  -32.4758   -8.5212 H   0  0  0  0  0  0  0  0  0  0  0  0
   17.3296  -31.3085   -9.5838 H   0  0  0  0  0  0  0  0  0  0  0  0
   15.9233  -31.1982   -8.7613 H   0  0  0  0  0  0  0  0  0  0  0  0
   23.5740  -39.9841  -10.1533 H   0  0  0  0  0  0  0  0  0  0  0  0
  1  2  2  0  0  0  0
  1  6  1  0  0  0  0
  1 26  1  0  0  0  0
  2  3  1  0  0  0  0
  2 27  1  0  0  0  0
  3  4  2  0  0  0  0
  3  7  1  0  0  0  0
  4  5  1  0  0  0  0
  4 28  1  0  0  0  0
  5  6  2  0  0  0  0
  5 14  1  0  0  0  0
  6 29  1  0  0  0  0
  7  8  1  0  0  0  0
  7 11  1  0  0  0  0
  8  9  1  0  0  0  0
  8 12  2  0  0  0  0
  9 10  1  0  0  0  0
 10 11  2  0  0  0  0
 11 13  1  0  0  0  0
  9 45  1  0  0  0  0
 13 30  1  0  0  0  0
 13 31  1  0  0  0  0
 13 32  1  0  0  0  0
 14 15  1  0  0  0  0
 14 33  1  0  0  0  0
 15 16  2  0  0  0  0
 15 17  1  0  0  0  0
 17 18  1  0  0  0  0
 17 34  1  0  0  0  0
 17 35  1  0  0  0  0
 18 19  2  0  0  0  0
 18 23  1  0  0  0  0
 19 20  1  0  0  0  0
 19 24  1  0  0  0  0
 20 21  2  0  0  0  0
 20 36  1  0  0  0  0
 21 22  1  0  0  0  0
 21 37  1  0  0  0  0
 22 23  2  0  0  0  0
 22 25  1  0  0  0  0
 23 38  1  0  0  0  0
 24 39  1  0  0  0  0
 24 40  1  0  0  0  0
 24 41  1  0  0  0  0
 25 42  1  0  0  0  0
 25 43  1  0  0  0  0
 25 44  1  0  0  0  0
M  END
> <BIOSOLVEIT.HYDE_ESTIMATED_AFFINITY_LOWER_BOUNDARY [nM]>
4288360.183073

> <BIOSOLVEIT.HYDE_ESTIMATED_AFFINITY_UPPER_BOUNDARY [nM]>
426073938.980319

> <BIOSOLVEIT.HYDE_LIGAND_EFFICIENCY range: ++, +, 0, -, -->
--

> <BIOSOLVEIT.HYDE_LIGAND_LIPOPHILIC_EFFICIENCY range: ++, +, 0, -, -->
--

> <BIOSOLVEIT.INTER_CLASH range: red, yellow, green>
green

> <BIOSOLVEIT.INTRA_CLASH range: red, yellow, green>
green

> <BIOSOLVEIT.LOGP>
3.51254

> <BIOSOLVEIT.MOLECULAR WEIGHT>
352.459

> <BIOSOLVEIT.MOLECULE_CHECKSUM>
LTcuODE0OTswLjMxMjU5Ng==

> <BIOSOLVEIT.TORSION_QUALITY range: red, yellow, green, not rotatable>
yellow

> <BIOSOLVEIT.TPSA>
56.73

$$$$
Z1544592819.****
b8Hydescor01032215413D 1   1.00000     0.00000     0
Hydescorer 1.1.2 b8048283
 45 47  0  0  0  0            999 V2000
   19.8681  -37.0517  -13.9611 C   0  0  0  0  0  0  0  0  0  0  0  0
   20.3173  -38.2723  -13.4609 C   0  0  0  0  0  0  0  0  0  0  0  0
   19.7637  -38.7660  -12.2758 C   0  0  0  0  0  0  0  0  0  0  0  0
   18.7741  -38.0723  -11.5830 C   0  0  0  0  0  0  0  0  0  0  0  0
   18.3481  -36.8531  -12.1017 C   0  0  0  0  0  0  0  0  0  0  0  0
   18.8819  -36.3385  -13.2838 C   0  0  0  0  0  0  0  0  0  0  0  0
   20.2291  -40.0163  -11.7585 N   0  0  0  0  0  0  0  0  0  0  0  0
   21.3521  -40.2249  -11.0457 C   0  0  0  0  0  0  0  0  0  0  0  0
   21.4545  -41.4867  -10.7480 N   0  0  0  0  0  0  0  0  0  0  0  0
   20.3492  -42.1162  -11.2909 N   0  0  0  0  0  0  0  0  0  0  0  0
   19.6357  -41.2224  -11.8848 C   0  0  0  0  0  0  0  0  0  0  0  0
   22.4539  -38.9404  -10.6251 S   0  0  0  0  0  0  0  0  0  0  0  0
   18.3302  -41.4341  -12.6206 C   0  0  0  0  0  0  0  0  0  0  0  0
   17.3599  -36.1276  -11.4198 N   0  0  0  0  0  0  0  0  0  0  0  0
   16.0200  -36.3505  -11.5044 C   0  0  0  0  0  0  0  0  0  0  0  0
   15.6912  -37.2612  -12.2340 O   0  0  0  0  0  0  0  0  0  0  0  0
   15.0109  -35.5169  -10.7303 C   0  0  0  0  0  0  0  0  0  0  0  0
   15.2068  -34.0447  -11.1003 C   0  0  0  0  0  0  0  0  0  0  0  0
   14.7483  -33.5096  -12.3136 C   0  0  0  0  0  0  0  0  0  0  0  0
   14.9464  -32.1563  -12.5829 C   0  0  0  0  0  0  0  0  0  0  0  0
   15.5995  -31.3378  -11.6699 C   0  0  0  0  0  0  0  0  0  0  0  0
   16.0703  -31.8633  -10.4731 C   0  0  0  0  0  0  0  0  0  0  0  0
   15.8796  -33.2142  -10.1998 C   0  0  0  0  0  0  0  0  0  0  0  0
   14.0379  -34.3548  -13.3559 C   0  0  0  0  0  0  0  0  0  0  0  0
   16.8009  -30.9826   -9.4829 C   0  0  0  0  0  0  0  0  0  0  0  0
   20.2547  -36.6870  -14.8083 H   0  0  0  0  0  0  0  0  0  0  0  0
   21.0258  -38.7879  -13.9428 H   0  0  0  0  0  0  0  0  0  0  0  0
   18.3821  -38.4389  -10.7393 H   0  0  0  0  0  0  0  0  0  0  0  0
   18.5584  -35.4629  -13.6425 H   0  0  0  0  0  0  0  0  0  0  0  0
   18.0816  -42.4021  -12.5867 H   0  0  0  0  0  0  0  0  0  0  0  0
   17.6115  -40.8900  -12.1877 H   0  0  0  0  0  0  0  0  0  0  0  0
   18.4350  -41.1500  -13.5737 H   0  0  0  0  0  0  0  0  0  0  0  0
   17.6650  -35.3859  -10.8225 H   0  0  0  0  0  0  0  0  0  0  0  0
   15.1551  -35.6396   -9.7484 H   0  0  0  0  0  0  0  0  0  0  0  0
   14.0831  -35.8036  -10.9693 H   0  0  0  0  0  0  0  0  0  0  0  0
   14.6146  -31.7702  -13.4436 H   0  0  0  0  0  0  0  0  0  0  0  0
   15.7311  -30.3678  -11.8747 H   0  0  0  0  0  0  0  0  0  0  0  0
   16.2298  -33.5972   -9.3450 H   0  0  0  0  0  0  0  0  0  0  0  0
   13.7963  -33.7834  -14.1401 H   0  0  0  0  0  0  0  0  0  0  0  0
   14.6427  -35.0929  -13.6550 H   0  0  0  0  0  0  0  0  0  0  0  0
   13.2071  -34.7447  -12.9590 H   0  0  0  0  0  0  0  0  0  0  0  0
   17.0647  -31.5253   -8.6855 H   0  0  0  0  0  0  0  0  0  0  0  0
   17.6199  -30.6042   -9.9143 H   0  0  0  0  0  0  0  0  0  0  0  0
   16.2009  -30.2363   -9.1946 H   0  0  0  0  0  0  0  0  0  0  0  0
   22.1906  -41.9186  -10.2269 H   0  0  0  0  0  0  0  0  0  0  0  0
  1  2  2  0  0  0  0
  1  6  1  0  0  0  0
  1 26  1  0  0  0  0
  2  3  1  0  0  0  0
  2 27  1  0  0  0  0
  3  4  2  0  0  0  0
  3  7  1  0  0  0  0
  4  5  1  0  0  0  0
  4 28  1  0  0  0  0
  5  6  2  0  0  0  0
  5 14  1  0  0  0  0
  6 29  1  0  0  0  0
  7  8  1  0  0  0  0
  7 11  1  0  0  0  0
  8  9  1  0  0  0  0
  8 12  2  0  0  0  0
  9 10  1  0  0  0  0
 10 11  2  0  0  0  0
 11 13  1  0  0  0  0
  9 45  1  0  0  0  0
 13 30  1  0  0  0  0
 13 31  1  0  0  0  0
 13 32  1  0  0  0  0
 14 15  1  0  0  0  0
 14 33  1  0  0  0  0
 15 16  2  0  0  0  0
 15 17  1  0  0  0  0
 17 18  1  0  0  0  0
 17 34  1  0  0  0  0
 17 35  1  0  0  0  0
 18 19  2  0  0  0  0
 18 23  1  0  0  0  0
 19 20  1  0  0  0  0
 19 24  1  0  0  0  0
 20 21  2  0  0  0  0
 20 36  1  0  0  0  0
 21 22  1  0  0  0  0
 21 37  1  0  0  0  0
 22 23  2  0  0  0  0
 22 25  1  0  0  0  0
 23 38  1  0  0  0  0
 24 39  1  0  0  0  0
 24 40  1  0  0  0  0
 24 41  1  0  0  0  0
 25 42  1  0  0  0  0
 25 43  1  0  0  0  0
 25 44  1  0  0  0  0
M  END
> <BIOSOLVEIT.HYDE_ESTIMATED_AFFINITY_LOWER_BOUNDARY [nM]>
5949483.712387

> <BIOSOLVEIT.HYDE_ESTIMATED_AFFINITY_UPPER_BOUNDARY [nM]>
591116382.957189

> <BIOSOLVEIT.HYDE_LIGAND_EFFICIENCY range: ++, +, 0, -, -->
--

> <BIOSOLVEIT.HYDE_LIGAND_LIPOPHILIC_EFFICIENCY range: ++, +, 0, -, -->
--

> <BIOSOLVEIT.INTER_CLASH range: red, yellow, green>
green

> <BIOSOLVEIT.INTRA_CLASH range: red, yellow, green>
green

> <BIOSOLVEIT.LOGP>
3.51254

> <BIOSOLVEIT.MOLECULAR WEIGHT>
352.459

> <BIOSOLVEIT.MOLECULE_CHECKSUM>
LTcuMDAzMjk7MC4yODAxMzI=

> <BIOSOLVEIT.TORSION_QUALITY range: red, yellow, green, not rotatable>
red

> <BIOSOLVEIT.TPSA>
56.73

$$$$
Z1544592819.****
b8Hydescor01032215413D 1   1.00000     0.00000     0
Hydescorer 1.1.2 b8048283
 45 47  0  0  0  0            999 V2000
   15.3268  -37.9968  -12.4377 C   0  0  0  0  0  0  0  0  0  0  0  0
   15.3655  -37.4398  -13.7144 C   0  0  0  0  0  0  0  0  0  0  0  0
   16.5772  -37.4232  -14.4119 C   0  0  0  0  0  0  0  0  0  0  0  0
   17.7456  -37.9498  -13.8663 C   0  0  0  0  0  0  0  0  0  0  0  0
   17.6799  -38.4946  -12.5873 C   0  0  0  0  0  0  0  0  0  0  0  0
   16.4833  -38.5265  -11.8701 C   0  0  0  0  0  0  0  0  0  0  0  0
   16.6187  -36.8458  -15.7204 N   0  0  0  0  0  0  0  0  0  0  0  0
   17.2634  -35.7212  -16.0843 C   0  0  0  0  0  0  0  0  0  0  0  0
   17.0773  -35.4998  -17.3523 N   0  0  0  0  0  0  0  0  0  0  0  0
   16.2804  -36.5267  -17.8244 N   0  0  0  0  0  0  0  0  0  0  0  0
   16.0223  -37.3141  -16.8374 C   0  0  0  0  0  0  0  0  0  0  0  0
   18.1895  -34.7605  -14.9618 S   0  0  0  0  0  0  0  0  0  0  0  0
   15.1904  -38.5780  -16.8686 C   0  0  0  0  0  0  0  0  0  0  0  0
   18.8432  -39.0233  -12.0085 N   0  0  0  0  0  0  0  0  0  0  0  0
   19.3204  -40.2820  -12.2087 C   0  0  0  0  0  0  0  0  0  0  0  0
   18.6633  -40.9722  -12.9579 O   0  0  0  0  0  0  0  0  0  0  0  0
   20.5930  -40.7800  -11.5418 C   0  0  0  0  0  0  0  0  0  0  0  0
   21.0902  -42.0145  -12.2981 C   0  0  0  0  0  0  0  0  0  0  0  0
   20.7987  -43.3202  -11.8750 C   0  0  0  0  0  0  0  0  0  0  0  0
   21.2702  -44.4015  -12.6176 C   0  0  0  0  0  0  0  0  0  0  0  0
   22.0313  -44.1999  -13.7623 C   0  0  0  0  0  0  0  0  0  0  0  0
   22.3375  -42.9106  -14.1792 C   0  0  0  0  0  0  0  0  0  0  0  0
   21.8736  -41.8268  -13.4401 C   0  0  0  0  0  0  0  0  0  0  0  0
   19.9818  -43.6052  -10.6271 C   0  0  0  0  0  0  0  0  0  0  0  0
   23.1833  -42.6835  -15.4132 C   0  0  0  0  0  0  0  0  0  0  0  0
   14.4668  -38.0164  -11.9277 H   0  0  0  0  0  0  0  0  0  0  0  0
   14.5383  -37.0574  -14.1260 H   0  0  0  0  0  0  0  0  0  0  0  0
   18.6049  -37.9368  -14.3776 H   0  0  0  0  0  0  0  0  0  0  0  0
   16.4562  -38.9271  -10.9542 H   0  0  0  0  0  0  0  0  0  0  0  0
   14.8496  -38.7299  -17.7964 H   0  0  0  0  0  0  0  0  0  0  0  0
   15.7543  -39.3552  -16.5893 H   0  0  0  0  0  0  0  0  0  0  0  0
   14.4177  -38.4841  -16.2409 H   0  0  0  0  0  0  0  0  0  0  0  0
   19.3647  -38.4262  -11.3988 H   0  0  0  0  0  0  0  0  0  0  0  0
   20.4023  -41.0220  -10.5904 H   0  0  0  0  0  0  0  0  0  0  0  0
   21.2905  -40.0640  -11.5702 H   0  0  0  0  0  0  0  0  0  0  0  0
   21.0581  -45.3332  -12.3231 H   0  0  0  0  0  0  0  0  0  0  0  0
   22.3597  -44.9850  -14.2875 H   0  0  0  0  0  0  0  0  0  0  0  0
   22.1044  -40.8982  -13.7309 H   0  0  0  0  0  0  0  0  0  0  0  0
   19.8912  -44.5937  -10.5066 H   0  0  0  0  0  0  0  0  0  0  0  0
   20.4421  -43.2130   -9.8306 H   0  0  0  0  0  0  0  0  0  0  0  0
   19.0741  -43.1965  -10.7223 H   0  0  0  0  0  0  0  0  0  0  0  0
   23.3006  -41.7014  -15.5608 H   0  0  0  0  0  0  0  0  0  0  0  0
   24.0785  -43.1108  -15.2870 H   0  0  0  0  0  0  0  0  0  0  0  0
   22.7297  -43.0881  -16.2072 H   0  0  0  0  0  0  0  0  0  0  0  0
   17.4405  -34.7343  -17.8836 H   0  0  0  0  0  0  0  0  0  0  0  0
  1  2  2  0  0  0  0
  1  6  1  0  0  0  0
  1 26  1  0  0  0  0
  2  3  1  0  0  0  0
  2 27  1  0  0  0  0
  3  4  2  0  0  0  0
  3  7  1  0  0  0  0
  4  5  1  0  0  0  0
  4 28  1  0  0  0  0
  5  6  2  0  0  0  0
  5 14  1  0  0  0  0
  6 29  1  0  0  0  0
  7  8  1  0  0  0  0
  7 11  1  0  0  0  0
  8  9  1  0  0  0  0
  8 12  2  0  0  0  0
  9 10  1  0  0  0  0
 10 11  2  0  0  0  0
 11 13  1  0  0  0  0
  9 45  1  0  0  0  0
 13 30  1  0  0  0  0
 13 31  1  0  0  0  0
 13 32  1  0  0  0  0
 14 15  1  0  0  0  0
 14 33  1  0  0  0  0
 15 16  2  0  0  0  0
 15 17  1  0  0  0  0
 17 18  1  0  0  0  0
 17 34  1  0  0  0  0
 17 35  1  0  0  0  0
 18 19  2  0  0  0  0
 18 23  1  0  0  0  0
 19 20  1  0  0  0  0
 19 24  1  0  0  0  0
 20 21  2  0  0  0  0
 20 36  1  0  0  0  0
 21 22  1  0  0  0  0
 21 37  1  0  0  0  0
 22 23  2  0  0  0  0
 22 25  1  0  0  0  0
 23 38  1  0  0  0  0
 24 39  1  0  0  0  0
 24 40  1  0  0  0  0
 24 41  1  0  0  0  0
 25 42  1  0  0  0  0
 25 43  1  0  0  0  0
 25 44  1  0  0  0  0
M  END
> <BIOSOLVEIT.HYDE_ESTIMATED_AFFINITY_LOWER_BOUNDARY [nM]>
45796668.713704

> <BIOSOLVEIT.HYDE_ESTIMATED_AFFINITY_UPPER_BOUNDARY [nM]>
4550169808.041110

> <BIOSOLVEIT.HYDE_LIGAND_EFFICIENCY range: ++, +, 0, -, -->
--

> <BIOSOLVEIT.HYDE_LIGAND_LIPOPHILIC_EFFICIENCY range: ++, +, 0, -, -->
--

> <BIOSOLVEIT.INTER_CLASH range: red, yellow, green>
green

> <BIOSOLVEIT.INTRA_CLASH range: red, yellow, green>
green

> <BIOSOLVEIT.LOGP>
3.51254

> <BIOSOLVEIT.MOLECULAR WEIGHT>
352.459

> <BIOSOLVEIT.MOLECULE_CHECKSUM>
LTEuOTQzOTc7MC4wNzc3NTg5

> <BIOSOLVEIT.TORSION_QUALITY range: red, yellow, green, not rotatable>
yellow

> <BIOSOLVEIT.TPSA>
56.73

$$$$
Z1544592819.****
b8Hydescor01032215413D 1   1.00000     0.00000     0
Hydescorer 1.1.2 b8048283
 45 47  0  0  0  0            999 V2000
   16.6444  -36.7108   -9.3577 C   0  0  0  0  0  0  0  0  0  0  0  0
   17.6820  -36.5439  -10.2728 C   0  0  0  0  0  0  0  0  0  0  0  0
   17.4978  -36.9655  -11.5931 C   0  0  0  0  0  0  0  0  0  0  0  0
   16.3051  -37.5456  -12.0188 C   0  0  0  0  0  0  0  0  0  0  0  0
   15.2876  -37.7058  -11.0828 C   0  0  0  0  0  0  0  0  0  0  0  0
   15.4439  -37.2915   -9.7596 C   0  0  0  0  0  0  0  0  0  0  0  0
   18.5652  -36.8000  -12.5314 N   0  0  0  0  0  0  0  0  0  0  0  0
   19.6037  -37.6346  -12.7252 C   0  0  0  0  0  0  0  0  0  0  0  0
   20.3787  -37.1615  -13.6564 N   0  0  0  0  0  0  0  0  0  0  0  0
   19.8134  -35.9730  -14.0809 N   0  0  0  0  0  0  0  0  0  0  0  0
   18.7369  -35.7801  -13.3994 C   0  0  0  0  0  0  0  0  0  0  0  0
   19.8075  -39.1115  -11.8210 S   0  0  0  0  0  0  0  0  0  0  0  0
   17.7781  -34.6147  -13.5133 C   0  0  0  0  0  0  0  0  0  0  0  0
   14.0789  -38.2961  -11.4809 N   0  0  0  0  0  0  0  0  0  0  0  0
   13.0798  -37.6662  -12.1567 C   0  0  0  0  0  0  0  0  0  0  0  0
   13.2884  -36.5022  -12.4237 O   0  0  0  0  0  0  0  0  0  0  0  0
   11.7964  -38.3793  -12.5527 C   0  0  0  0  0  0  0  0  0  0  0  0
   11.6735  -38.3533  -14.0782 C   0  0  0  0  0  0  0  0  0  0  0  0
   10.4358  -38.2333  -14.7283 C   0  0  0  0  0  0  0  0  0  0  0  0
   10.3948  -38.2015  -16.1212 C   0  0  0  0  0  0  0  0  0  0  0  0
   11.5616  -38.2971  -16.8693 C   0  0  0  0  0  0  0  0  0  0  0  0
   12.7895  -38.4318  -16.2335 C   0  0  0  0  0  0  0  0  0  0  0  0
   12.8372  -38.4686  -14.8435 C   0  0  0  0  0  0  0  0  0  0  0  0
    9.1258  -38.1362  -13.9668 C   0  0  0  0  0  0  0  0  0  0  0  0
   14.0625  -38.5575  -17.0419 C   0  0  0  0  0  0  0  0  0  0  0  0
   16.7621  -36.4130   -8.4103 H   0  0  0  0  0  0  0  0  0  0  0  0
   18.5464  -36.1285   -9.9892 H   0  0  0  0  0  0  0  0  0  0  0  0
   16.1838  -37.8380  -12.9674 H   0  0  0  0  0  0  0  0  0  0  0  0
   14.6985  -37.4108   -9.1038 H   0  0  0  0  0  0  0  0  0  0  0  0
   18.1032  -33.9830  -14.2171 H   0  0  0  0  0  0  0  0  0  0  0  0
   16.8705  -34.9528  -13.7623 H   0  0  0  0  0  0  0  0  0  0  0  0
   17.7269  -34.1381  -12.6357 H   0  0  0  0  0  0  0  0  0  0  0  0
   13.9401  -39.2589  -11.2490 H   0  0  0  0  0  0  0  0  0  0  0  0
   11.0120  -37.9130  -12.1436 H   0  0  0  0  0  0  0  0  0  0  0  0
   11.8249  -39.3264  -12.2332 H   0  0  0  0  0  0  0  0  0  0  0  0
    9.5151  -38.1087  -16.5877 H   0  0  0  0  0  0  0  0  0  0  0  0
   11.5175  -38.2689  -17.8679 H   0  0  0  0  0  0  0  0  0  0  0  0
   13.7187  -38.5794  -14.3844 H   0  0  0  0  0  0  0  0  0  0  0  0
    8.3684  -38.0575  -14.6151 H   0  0  0  0  0  0  0  0  0  0  0  0
    9.0029  -38.9568  -13.4087 H   0  0  0  0  0  0  0  0  0  0  0  0
    9.1430  -37.3302  -13.3751 H   0  0  0  0  0  0  0  0  0  0  0  0
   14.8431  -38.6451  -16.4230 H   0  0  0  0  0  0  0  0  0  0  0  0
   14.0078  -39.3672  -17.6263 H   0  0  0  0  0  0  0  0  0  0  0  0
   14.1779  -37.7431  -17.6107 H   0  0  0  0  0  0  0  0  0  0  0  0
   21.2212  -37.5772  -13.9994 H   0  0  0  0  0  0  0  0  0  0  0  0
  1  2  2  0  0  0  0
  1  6  1  0  0  0  0
  1 26  1  0  0  0  0
  2  3  1  0  0  0  0
  2 27  1  0  0  0  0
  3  4  2  0  0  0  0
  3  7  1  0  0  0  0
  4  5  1  0  0  0  0
  4 28  1  0  0  0  0
  5  6  2  0  0  0  0
  5 14  1  0  0  0  0
  6 29  1  0  0  0  0
  7  8  1  0  0  0  0
  7 11  1  0  0  0  0
  8  9  1  0  0  0  0
  8 12  2  0  0  0  0
  9 10  1  0  0  0  0
 10 11  2  0  0  0  0
 11 13  1  0  0  0  0
  9 45  1  0  0  0  0
 13 30  1  0  0  0  0
 13 31  1  0  0  0  0
 13 32  1  0  0  0  0
 14 15  1  0  0  0  0
 14 33  1  0  0  0  0
 15 16  2  0  0  0  0
 15 17  1  0  0  0  0
 17 18  1  0  0  0  0
 17 34  1  0  0  0  0
 17 35  1  0  0  0  0
 18 19  2  0  0  0  0
 18 23  1  0  0  0  0
 19 20  1  0  0  0  0
 19 24  1  0  0  0  0
 20 21  2  0  0  0  0
 20 36  1  0  0  0  0
 21 22  1  0  0  0  0
 21 37  1  0  0  0  0
 22 23  2  0  0  0  0
 22 25  1  0  0  0  0
 23 38  1  0  0  0  0
 24 39  1  0  0  0  0
 24 40  1  0  0  0  0
 24 41  1  0  0  0  0
 25 42  1  0  0  0  0
 25 43  1  0  0  0  0
 25 44  1  0  0  0  0
M  END
> <BIOSOLVEIT.HYDE_ESTIMATED_AFFINITY_LOWER_BOUNDARY [nM]>
207545651.699062

> <BIOSOLVEIT.HYDE_ESTIMATED_AFFINITY_UPPER_BOUNDARY [nM]>
20620887603.309387

> <BIOSOLVEIT.HYDE_LIGAND_EFFICIENCY range: ++, +, 0, -, -->
--

> <BIOSOLVEIT.HYDE_LIGAND_LIPOPHILIC_EFFICIENCY range: ++, +, 0, -, -->
--

> <BIOSOLVEIT.INTER_CLASH range: red, yellow, green>
green

> <BIOSOLVEIT.INTRA_CLASH range: red, yellow, green>
green

> <BIOSOLVEIT.LOGP>
3.51254

> <BIOSOLVEIT.MOLECULAR WEIGHT>
352.459

> <BIOSOLVEIT.MOLECULE_CHECKSUM>
MS44MDIwODsw

> <BIOSOLVEIT.TORSION_QUALITY range: red, yellow, green, not rotatable>
red

> <BIOSOLVEIT.TPSA>
56.73

$$$$
Z1544592819.****
b8Hydescor01032215413D 1   1.00000     0.00000     0
Hydescorer 1.1.2 b8048283
 45 47  0  0  0  0            999 V2000
   19.6053  -37.6718  -11.9984 C   0  0  0  0  0  0  0  0  0  0  0  0
   19.1611  -36.7311  -12.9257 C   0  0  0  0  0  0  0  0  0  0  0  0
   17.9946  -36.9911  -13.6515 C   0  0  0  0  0  0  0  0  0  0  0  0
   17.2637  -38.1631  -13.4713 C   0  0  0  0  0  0  0  0  0  0  0  0
   17.7331  -39.0879  -12.5431 C   0  0  0  0  0  0  0  0  0  0  0  0
   18.8927  -38.8526  -11.8036 C   0  0  0  0  0  0  0  0  0  0  0  0
   17.5416  -36.0284  -14.6082 N   0  0  0  0  0  0  0  0  0  0  0  0
   18.0291  -35.8342  -15.8481 C   0  0  0  0  0  0  0  0  0  0  0  0
   17.3757  -34.8725  -16.4307 N   0  0  0  0  0  0  0  0  0  0  0  0
   16.4260  -34.4306  -15.5276 N   0  0  0  0  0  0  0  0  0  0  0  0
   16.5431  -35.1329  -14.4535 C   0  0  0  0  0  0  0  0  0  0  0  0
   19.3437  -36.7749  -16.5019 S   0  0  0  0  0  0  0  0  0  0  0  0
   15.7181  -35.0170  -13.1899 C   0  0  0  0  0  0  0  0  0  0  0  0
   17.0228  -40.2816  -12.3480 N   0  0  0  0  0  0  0  0  0  0  0  0
   17.5357  -41.5347  -12.4856 C   0  0  0  0  0  0  0  0  0  0  0  0
   18.7058  -41.5842  -12.7982 O   0  0  0  0  0  0  0  0  0  0  0  0
   16.6967  -42.7818  -12.2554 C   0  0  0  0  0  0  0  0  0  0  0  0
   16.2860  -43.3525  -13.6151 C   0  0  0  0  0  0  0  0  0  0  0  0
   15.8779  -44.6853  -13.7758 C   0  0  0  0  0  0  0  0  0  0  0  0
   15.5028  -45.1383  -15.0397 C   0  0  0  0  0  0  0  0  0  0  0  0
   15.5383  -44.2893  -16.1388 C   0  0  0  0  0  0  0  0  0  0  0  0
   15.9560  -42.9725  -15.9907 C   0  0  0  0  0  0  0  0  0  0  0  0
   16.3358  -42.5151  -14.7327 C   0  0  0  0  0  0  0  0  0  0  0  0
   15.8287  -45.6642  -12.6162 C   0  0  0  0  0  0  0  0  0  0  0  0
   16.0171  -42.0477  -17.1868 C   0  0  0  0  0  0  0  0  0  0  0  0
   20.4375  -37.4986  -11.4717 H   0  0  0  0  0  0  0  0  0  0  0  0
   19.6694  -35.8822  -13.0700 H   0  0  0  0  0  0  0  0  0  0  0  0
   16.4278  -38.3347  -13.9927 H   0  0  0  0  0  0  0  0  0  0  0  0
   19.2103  -39.5277  -11.1376 H   0  0  0  0  0  0  0  0  0  0  0  0
   15.0399  -34.2905  -13.3001 H   0  0  0  0  0  0  0  0  0  0  0  0
   15.2521  -35.8844  -13.0153 H   0  0  0  0  0  0  0  0  0  0  0  0
   16.3173  -34.7996  -12.4194 H   0  0  0  0  0  0  0  0  0  0  0  0
   16.0606  -40.2056  -12.0864 H   0  0  0  0  0  0  0  0  0  0  0  0
   15.8802  -42.5459  -11.7285 H   0  0  0  0  0  0  0  0  0  0  0  0
   17.2328  -43.4605  -11.7533 H   0  0  0  0  0  0  0  0  0  0  0  0
   15.2046  -46.0857  -15.1566 H   0  0  0  0  0  0  0  0  0  0  0  0
   15.2625  -44.6267  -17.0388 H   0  0  0  0  0  0  0  0  0  0  0  0
   16.6497  -41.5716  -14.6267 H   0  0  0  0  0  0  0  0  0  0  0  0
   15.5128  -46.5544  -12.9445 H   0  0  0  0  0  0  0  0  0  0  0  0
   16.7425  -45.7596  -12.2215 H   0  0  0  0  0  0  0  0  0  0  0  0
   15.1984  -45.3234  -11.9187 H   0  0  0  0  0  0  0  0  0  0  0  0
   16.3370  -41.1463  -16.8952 H   0  0  0  0  0  0  0  0  0  0  0  0
   16.6488  -42.4221  -17.8656 H   0  0  0  0  0  0  0  0  0  0  0  0
   15.1058  -41.9636  -17.5901 H   0  0  0  0  0  0  0  0  0  0  0  0
   17.5301  -34.5204  -17.3538 H   0  0  0  0  0  0  0  0  0  0  0  0
  1  2  2  0  0  0  0
  1  6  1  0  0  0  0
  1 26  1  0  0  0  0
  2  3  1  0  0  0  0
  2 27  1  0  0  0  0
  3  4  2  0  0  0  0
  3  7  1  0  0  0  0
  4  5  1  0  0  0  0
  4 28  1  0  0  0  0
  5  6  2  0  0  0  0
  5 14  1  0  0  0  0
  6 29  1  0  0  0  0
  7  8  1  0  0  0  0
  7 11  1  0  0  0  0
  8  9  1  0  0  0  0
  8 12  2  0  0  0  0
  9 10  1  0  0  0  0
 10 11  2  0  0  0  0
 11 13  1  0  0  0  0
  9 45  1  0  0  0  0
 13 30  1  0  0  0  0
 13 31  1  0  0  0  0
 13 32  1  0  0  0  0
 14 15  1  0  0  0  0
 14 33  1  0  0  0  0
 15 16  2  0  0  0  0
 15 17  1  0  0  0  0
 17 18  1  0  0  0  0
 17 34  1  0  0  0  0
 17 35  1  0  0  0  0
 18 19  2  0  0  0  0
 18 23  1  0  0  0  0
 19 20  1  0  0  0  0
 19 24  1  0  0  0  0
 20 21  2  0  0  0  0
 20 36  1  0  0  0  0
 21 22  1  0  0  0  0
 21 37  1  0  0  0  0
 22 23  2  0  0  0  0
 22 25  1  0  0  0  0
 23 38  1  0  0  0  0
 24 39  1  0  0  0  0
 24 40  1  0  0  0  0
 24 41  1  0  0  0  0
 25 42  1  0  0  0  0
 25 43  1  0  0  0  0
 25 44  1  0  0  0  0
M  END
> <BIOSOLVEIT.HYDE_ESTIMATED_AFFINITY_LOWER_BOUNDARY [nM]>
1600037.090432

> <BIOSOLVEIT.HYDE_ESTIMATED_AFFINITY_UPPER_BOUNDARY [nM]>
158973145.102433

> <BIOSOLVEIT.HYDE_LIGAND_EFFICIENCY range: ++, +, 0, -, -->
--

> <BIOSOLVEIT.HYDE_LIGAND_LIPOPHILIC_EFFICIENCY range: ++, +, 0, -, -->
--

> <BIOSOLVEIT.INTER_CLASH range: red, yellow, green>
green

> <BIOSOLVEIT.INTRA_CLASH range: red, yellow, green>
green

> <BIOSOLVEIT.LOGP>
3.51254

> <BIOSOLVEIT.MOLECULAR WEIGHT>
352.459

> <BIOSOLVEIT.MOLECULE_CHECKSUM>
LTEwLjI1ODk7MC40MTAzNTQ=

> <BIOSOLVEIT.TORSION_QUALITY range: red, yellow, green, not rotatable>
yellow

> <BIOSOLVEIT.TPSA>
56.73

$$$$
