
##########                                Name:m_22bba____14316652____9279318
##########                        Cluster_Size:                   6
##########                          Grid_Score:          -40.174538
##########                     Grid_vdw_energy:          -36.356907
##########                      Grid_es_energy:           -3.817631
##########           Internal_energy_repulsive:           14.394914

@<TRIPOS>MOLECULE
m_22bba____14316652____9279318
 57 59 1 0 0
SMALL
USER_CHARGES
****

@<TRIPOS>ATOM
      1 CL         12.8874  -38.8007  -13.2547 Cl      1  LIG1       -0.1770
      2 C          14.2071  -38.9374  -12.1352 C.ar    1  LIG1        0.1770
      3 C          14.5327  -37.9313  -11.1894 C.ar    1  LIG1        0.4100
      4 N          15.5007  -38.0803  -10.2891 N.ar    1  LIG1       -0.6200
      5 C          16.2165  -39.2083  -10.2920 C.ar    1  LIG1        0.1600
      6 C          15.9872  -40.2521  -11.2006 C.ar    1  LIG1        0.0860
      7 C          14.9570  -40.1020  -12.1441 C.ar    1  LIG1       -0.1500
      8 C          16.8246  -41.4468  -11.1283 C.2     1  LIG1        0.5440
      9 O          16.4884  -42.5128  -11.6232 O.2     1  LIG1       -0.5700
     10 N          18.0425  -41.3899  -10.4932 N.am    1  LIG1       -0.7300
     11 C          19.0051  -42.5069  -10.3344 C.3     1  LIG1        0.2200
     12 C          19.9357  -42.6394  -11.5747 C.3     1  LIG1        0.2600
     13 F          19.1429  -42.9612  -12.6500 F       1  LIG1       -0.3400
     14 C          20.8655  -43.8448  -11.3394 C.3     1  LIG1        0.1400
     15 N          21.5714  -43.5926  -10.0628 N.am    1  LIG1       -0.6600
     16 C          22.8987  -43.2231  -10.0722 C.2     1  LIG1        0.7800
     17 O          23.5173  -43.0059   -9.0401 O.2     1  LIG1       -0.5700
     18 O          23.4642  -43.1186  -11.2925 O.3     1  LIG1       -0.4300
     19 C          24.8216  -42.7542  -11.6102 C.3     1  LIG1        0.2800
     20 C          25.0494  -41.3493  -11.0484 C.3     1  LIG1       -0.2400
     21 C          25.0269  -42.7082  -13.1288 C.3     1  LIG1       -0.2400
     22 C          25.8105  -43.7119  -10.9351 C.3     1  LIG1       -0.2400
     23 C          20.7321  -43.5162   -8.8535 C.3     1  LIG1        0.1400
     24 C          19.8420  -42.2766   -9.0582 C.3     1  LIG1       -0.1600
     25 N          13.8918  -36.7128  -11.0720 N.pl3   1  LIG1       -0.6000
     26 C          14.5208  -35.4543  -11.1176 C.ar    1  LIG1        0.1000
     27 C          15.1105  -34.9908  -12.2965 C.ar    1  LIG1       -0.1500
     28 C          15.7344  -33.7475  -12.3063 C.ar    1  LIG1       -0.1500
     29 C          15.7744  -32.9768  -11.1407 C.ar    1  LIG1        0.1770
     30 CL         16.5516  -31.4312  -11.1545 Cl      1  LIG1       -0.1770
     31 C          15.1900  -33.4511   -9.9626 C.ar    1  LIG1       -0.1500
     32 C          14.5634  -34.6929   -9.9485 C.ar    1  LIG1       -0.1500
     33 H          16.9898  -39.3046   -9.5692 H       1  LIG1        0.1500
     34 H          14.7401  -40.8547  -12.8537 H       1  LIG1        0.1500
     35 H          18.2244  -40.5726   -9.9013 H       1  LIG1        0.3700
     36 H          18.4547  -43.4403  -10.2045 H       1  LIG1        0.0800
     37 H          20.5123  -41.7433  -11.7538 H       1  LIG1        0.0800
     38 H          20.2661  -44.7413  -11.2504 H       1  LIG1        0.0800
     39 H          21.5544  -43.9106  -12.1719 H       1  LIG1        0.0800
     40 H          26.0646  -41.0142  -11.2629 H       1  LIG1        0.0800
     41 H          24.3404  -40.6553  -11.4997 H       1  LIG1        0.0800
     42 H          24.8936  -41.3554   -9.9704 H       1  LIG1        0.0800
     43 H          26.0220  -42.3283  -13.3610 H       1  LIG1        0.0800
     44 H          24.2772  -42.0605  -13.5817 H       1  LIG1        0.0800
     45 H          24.9302  -43.7064  -13.5534 H       1  LIG1        0.0800
     46 H          25.7153  -44.7119  -11.3569 H       1  LIG1        0.0800
     47 H          25.6044  -43.7593   -9.8670 H       1  LIG1        0.0800
     48 H          26.8319  -43.3660  -11.0921 H       1  LIG1        0.0800
     49 H          21.3250  -43.3758   -7.9575 H       1  LIG1        0.0800
     50 H          20.1152  -44.4031   -8.7833 H       1  LIG1        0.0800
     51 H          20.4707  -41.3914   -9.1493 H       1  LIG1        0.0800
     52 H          19.1803  -42.1581   -8.2000 H       1  LIG1        0.0800
     53 H          13.0125  -36.7725  -10.5412 H       1  LIG1        0.4000
     54 H          15.0865  -35.5835  -13.1740 H       1  LIG1        0.1500
     55 H          16.1834  -33.3783  -13.1915 H       1  LIG1        0.1500
     56 H          15.2271  -32.8578   -9.0861 H       1  LIG1        0.1500
     57 H          14.1142  -35.0599   -9.0625 H       1  LIG1        0.1500
@<TRIPOS>BOND
     1     1     2    1
     2     2     3   ar
     3     2     7   ar
     4     3     4   ar
     5     3    25    1
     6     4     5   ar
     7     5     6   ar
     8     5    33    1
     9     6     7   ar
    10     6     8    1
    11     7    34    1
    12     8     9    2
    13     8    10   am
    14    10    11    1
    15    10    35    1
    16    11    12    1
    17    11    24    1
    18    11    36    1
    19    12    13    1
    20    12    14    1
    21    12    37    1
    22    14    15    1
    23    14    38    1
    24    14    39    1
    25    15    16   am
    26    15    23    1
    27    16    17    2
    28    16    18    1
    29    18    19    1
    30    19    20    1
    31    19    21    1
    32    19    22    1
    33    20    40    1
    34    20    41    1
    35    20    42    1
    36    21    43    1
    37    21    44    1
    38    21    45    1
    39    22    46    1
    40    22    47    1
    41    22    48    1
    42    23    24    1
    43    23    49    1
    44    23    50    1
    45    24    51    1
    46    24    52    1
    47    25    26    1
    48    25    53    1
    49    26    27   ar
    50    26    32   ar
    51    27    28   ar
    52    27    54    1
    53    28    29   ar
    54    28    55    1
    55    29    30    1
    56    29    31   ar
    57    31    32   ar
    58    31    56    1
    59    32    57    1
@<TRIPOS>SUBSTRUCTURE
     1 LIG1        1 TEMP              0 ****  ****    0 ROOT


##########                                Name:m_22bba____14316652____9279318
##########                        Cluster_Size:                   3
##########                          Grid_Score:          -36.681019
##########                     Grid_vdw_energy:          -35.455997
##########                      Grid_es_energy:           -1.225022
##########           Internal_energy_repulsive:           14.210588

@<TRIPOS>MOLECULE
m_22bba____14316652____9279318
 57 59 1 0 0
SMALL
USER_CHARGES
****

@<TRIPOS>ATOM
      1 CL         15.3347  -37.0429  -12.4299 Cl      1  LIG1       -0.1770
      2 C          16.4867  -37.2081  -11.1419 C.ar    1  LIG1        0.1770
      3 C          16.3961  -36.4925   -9.9202 C.ar    1  LIG1        0.4100
      4 N          17.2448  -36.6828   -8.9135 N.ar    1  LIG1       -0.6200
      5 C          18.2407  -37.5601   -9.0663 C.ar    1  LIG1        0.1600
      6 C          18.4288  -38.2997  -10.2432 C.ar    1  LIG1        0.0860
      7 C          17.5261  -38.1094  -11.3030 C.ar    1  LIG1       -0.1500
      8 C          19.5495  -39.2335  -10.3179 C.2     1  LIG1        0.5440
      9 O          20.2721  -39.4669   -9.3598 O.2     1  LIG1       -0.5700
     10 N          19.8133  -39.8912  -11.4958 N.am    1  LIG1       -0.7300
     11 C          20.9066  -40.8646  -11.7344 C.3     1  LIG1        0.2200
     12 C          20.5087  -41.9182  -12.8084 C.3     1  LIG1        0.2600
     13 F          19.4519  -42.6382  -12.3051 F       1  LIG1       -0.3400
     14 C          21.6812  -42.9062  -12.9564 C.3     1  LIG1        0.1400
     15 N          22.8749  -42.0991  -13.2965 N.am    1  LIG1       -0.6600
     16 C          23.3714  -42.1136  -14.5817 C.2     1  LIG1        0.7800
     17 O          24.3545  -41.4615  -14.9029 O.2     1  LIG1       -0.5700
     18 O          22.7007  -42.8929  -15.4551 O.3     1  LIG1       -0.4300
     19 C          22.9851  -43.1035  -16.8518 C.3     1  LIG1        0.2800
     20 C          24.3936  -43.6953  -16.9361 C.3     1  LIG1       -0.2400
     21 C          22.9724  -41.7721  -17.6120 C.3     1  LIG1       -0.2400
     22 C          21.9999  -44.1097  -17.4583 C.3     1  LIG1       -0.2400
     23 C          23.3202  -41.1274  -12.2817 C.3     1  LIG1        0.1400
     24 C          22.1753  -40.1035  -12.1741 C.3     1  LIG1       -0.1600
     25 N          15.4317  -35.5496   -9.6205 N.pl3   1  LIG1       -0.6000
     26 C          15.4853  -34.1886   -9.9762 C.ar    1  LIG1        0.1000
     27 C          14.5680  -33.6484  -10.8814 C.ar    1  LIG1       -0.1500
     28 C          14.6544  -32.3023  -11.2215 C.ar    1  LIG1       -0.1500
     29 C          15.6579  -31.5041  -10.6646 C.ar    1  LIG1        0.1770
     30 CL         15.7643  -29.8305  -11.0894 Cl      1  LIG1       -0.1770
     31 C          16.5776  -32.0537   -9.7665 C.ar    1  LIG1       -0.1500
     32 C          16.4940  -33.3989   -9.4221 C.ar    1  LIG1       -0.1500
     33 H          18.9118  -37.6922   -8.2527 H       1  LIG1        0.1500
     34 H          17.6196  -38.6380  -12.2134 H       1  LIG1        0.1500
     35 H          19.3528  -39.5398  -12.3419 H       1  LIG1        0.3700
     36 H          21.1380  -41.3813  -10.8015 H       1  LIG1        0.0800
     37 H          20.2701  -41.4655  -13.7601 H       1  LIG1        0.0800
     38 H          21.8414  -43.4084  -12.0114 H       1  LIG1        0.0800
     39 H          21.4362  -43.6098  -13.7418 H       1  LIG1        0.0800
     40 H          24.6694  -43.8735  -17.9757 H       1  LIG1        0.0800
     41 H          25.1082  -43.0041  -16.4894 H       1  LIG1        0.0800
     42 H          24.4296  -44.6363  -16.3887 H       1  LIG1        0.0800
     43 H          23.2935  -41.9260  -18.6424 H       1  LIG1        0.0800
     44 H          23.6429  -41.0647  -17.1256 H       1  LIG1        0.0800
     45 H          21.9675  -41.3524  -17.6220 H       1  LIG1        0.0800
     46 H          20.9933  -43.6933  -17.4686 H       1  LIG1        0.0800
     47 H          21.9970  -45.0232  -16.8657 H       1  LIG1        0.0800
     48 H          22.2881  -44.3435  -18.4830 H       1  LIG1        0.0800
     49 H          24.2230  -40.6105  -12.5849 H       1  LIG1        0.0800
     50 H          23.4534  -41.6298  -11.3319 H       1  LIG1        0.0800
     51 H          22.0332  -39.6176  -13.1390 H       1  LIG1        0.0800
     52 H          22.4299  -39.3500  -11.4286 H       1  LIG1        0.0800
     53 H          14.8854  -35.7882   -8.7820 H       1  LIG1        0.4000
     54 H          13.8163  -34.2602  -11.3084 H       1  LIG1        0.1500
     55 H          13.9656  -31.8746  -11.9029 H       1  LIG1        0.1500
     56 H          17.3332  -31.4386   -9.3516 H       1  LIG1        0.1500
     57 H          17.1831  -33.8243   -8.7398 H       1  LIG1        0.1500
@<TRIPOS>BOND
     1     1     2    1
     2     2     3   ar
     3     2     7   ar
     4     3     4   ar
     5     3    25    1
     6     4     5   ar
     7     5     6   ar
     8     5    33    1
     9     6     7   ar
    10     6     8    1
    11     7    34    1
    12     8     9    2
    13     8    10   am
    14    10    11    1
    15    10    35    1
    16    11    12    1
    17    11    24    1
    18    11    36    1
    19    12    13    1
    20    12    14    1
    21    12    37    1
    22    14    15    1
    23    14    38    1
    24    14    39    1
    25    15    16   am
    26    15    23    1
    27    16    17    2
    28    16    18    1
    29    18    19    1
    30    19    20    1
    31    19    21    1
    32    19    22    1
    33    20    40    1
    34    20    41    1
    35    20    42    1
    36    21    43    1
    37    21    44    1
    38    21    45    1
    39    22    46    1
    40    22    47    1
    41    22    48    1
    42    23    24    1
    43    23    49    1
    44    23    50    1
    45    24    51    1
    46    24    52    1
    47    25    26    1
    48    25    53    1
    49    26    27   ar
    50    26    32   ar
    51    27    28   ar
    52    27    54    1
    53    28    29   ar
    54    28    55    1
    55    29    30    1
    56    29    31   ar
    57    31    32   ar
    58    31    56    1
    59    32    57    1
@<TRIPOS>SUBSTRUCTURE
     1 LIG1        1 TEMP              0 ****  ****    0 ROOT


##########                                Name:m_22bba____14316652____9279318
##########                        Cluster_Size:                   1
##########                          Grid_Score:          -36.259644
##########                     Grid_vdw_energy:          -34.336575
##########                      Grid_es_energy:           -1.923067
##########           Internal_energy_repulsive:           13.791382

@<TRIPOS>MOLECULE
m_22bba____14316652____9279318
 57 59 1 0 0
SMALL
USER_CHARGES
****

@<TRIPOS>ATOM
      1 CL         18.4925  -36.1335   -9.2584 Cl      1  LIG1       -0.1770
      2 C          18.1521  -37.8286   -9.4144 C.ar    1  LIG1        0.1770
      3 C          16.8386  -38.3505   -9.5368 C.ar    1  LIG1        0.4100
      4 N          16.5966  -39.6446   -9.7287 N.ar    1  LIG1       -0.6200
      5 C          17.6272  -40.4931   -9.7790 C.ar    1  LIG1        0.1600
      6 C          18.9607  -40.0788   -9.6461 C.ar    1  LIG1        0.0860
      7 C          19.2191  -38.7109   -9.4559 C.ar    1  LIG1       -0.1500
      8 C          20.0207  -41.0816   -9.7114 C.2     1  LIG1        0.5440
      9 O          20.0579  -42.0448   -8.9597 O.2     1  LIG1       -0.5700
     10 N          21.0173  -40.9619  -10.6508 N.am    1  LIG1       -0.7300
     11 C          22.1580  -41.8893  -10.8465 C.3     1  LIG1        0.2200
     12 C          21.8081  -43.0195  -11.8575 C.3     1  LIG1        0.2600
     13 F          20.7937  -43.7642  -11.3055 F       1  LIG1       -0.3400
     14 C          23.0294  -43.9523  -11.9628 C.3     1  LIG1        0.1400
     15 N          24.1770  -43.1048  -12.3580 N.am    1  LIG1       -0.6600
     16 C          24.6648  -43.1642  -13.6452 C.2     1  LIG1        0.7800
     17 O          24.1773  -43.9033  -14.4884 O.2     1  LIG1       -0.5700
     18 O          25.7115  -42.3546  -13.9080 O.3     1  LIG1       -0.4300
     19 C          26.4227  -42.2040  -15.1520 C.3     1  LIG1        0.2800
     20 C          25.4054  -41.7330  -16.1934 C.3     1  LIG1       -0.2400
     21 C          26.9988  -43.5487  -15.6107 C.3     1  LIG1       -0.2400
     22 C          27.5150  -41.1356  -15.0242 C.3     1  LIG1       -0.2400
     23 C          24.5782  -42.0570  -11.4020 C.3     1  LIG1        0.1400
     24 C          23.3824  -41.0892  -11.3393 C.3     1  LIG1       -0.1600
     25 N          15.6781  -37.6018   -9.4943 N.pl3   1  LIG1       -0.6000
     26 C          15.3626  -36.5391  -10.3619 C.ar    1  LIG1        0.1000
     27 C          15.0438  -35.2748   -9.8594 C.ar    1  LIG1       -0.1500
     28 C          14.7253  -34.2482  -10.7424 C.ar    1  LIG1       -0.1500
     29 C          14.7185  -34.4882  -12.1195 C.ar    1  LIG1        0.1770
     30 CL         14.3213  -33.2104  -13.2160 Cl      1  LIG1       -0.1770
     31 C          15.0299  -35.7580  -12.6145 C.ar    1  LIG1       -0.1500
     32 C          15.3507  -36.7873  -11.7355 C.ar    1  LIG1       -0.1500
     33 H          17.4119  -41.5235   -9.9261 H       1  LIG1        0.1500
     34 H          20.2036  -38.3417   -9.3483 H       1  LIG1        0.1500
     35 H          21.1058  -40.0583  -11.1274 H       1  LIG1        0.3700
     36 H          22.4224  -42.3414   -9.8891 H       1  LIG1        0.0800
     37 H          21.5398  -42.6327  -12.8301 H       1  LIG1        0.0800
     38 H          23.2219  -44.3929  -10.9934 H       1  LIG1        0.0800
     39 H          22.8159  -44.7097  -12.7062 H       1  LIG1        0.0800
     40 H          25.8862  -41.6048  -17.1635 H       1  LIG1        0.0800
     41 H          24.6069  -42.4693  -16.2839 H       1  LIG1        0.0800
     42 H          24.9714  -40.7845  -15.8795 H       1  LIG1        0.0800
     43 H          27.4408  -43.4483  -16.6022 H       1  LIG1        0.0800
     44 H          26.2072  -44.2965  -15.6412 H       1  LIG1        0.0800
     45 H          27.7713  -43.8840  -14.9202 H       1  LIG1        0.0800
     46 H          28.2888  -41.4675  -14.3329 H       1  LIG1        0.0800
     47 H          27.0810  -40.2102  -14.6488 H       1  LIG1        0.0800
     48 H          27.9740  -40.9527  -15.9956 H       1  LIG1        0.0800
     49 H          25.4508  -41.5117  -11.7416 H       1  LIG1        0.0800
     50 H          24.7439  -42.4989  -10.4276 H       1  LIG1        0.0800
     51 H          23.2086  -40.6650  -12.3278 H       1  LIG1        0.0800
     52 H          23.6026  -40.2837  -10.6385 H       1  LIG1        0.0800
     53 H          15.2505  -37.5789   -8.5589 H       1  LIG1        0.4000
     54 H          15.0402  -35.1013   -8.8146 H       1  LIG1        0.1500
     55 H          14.4848  -33.2826  -10.3799 H       1  LIG1        0.1500
     56 H          15.0211  -35.9272  -13.6599 H       1  LIG1        0.1500
     57 H          15.5920  -37.7518  -12.1000 H       1  LIG1        0.1500
@<TRIPOS>BOND
     1     1     2    1
     2     2     3   ar
     3     2     7   ar
     4     3     4   ar
     5     3    25    1
     6     4     5   ar
     7     5     6   ar
     8     5    33    1
     9     6     7   ar
    10     6     8    1
    11     7    34    1
    12     8     9    2
    13     8    10   am
    14    10    11    1
    15    10    35    1
    16    11    12    1
    17    11    24    1
    18    11    36    1
    19    12    13    1
    20    12    14    1
    21    12    37    1
    22    14    15    1
    23    14    38    1
    24    14    39    1
    25    15    16   am
    26    15    23    1
    27    16    17    2
    28    16    18    1
    29    18    19    1
    30    19    20    1
    31    19    21    1
    32    19    22    1
    33    20    40    1
    34    20    41    1
    35    20    42    1
    36    21    43    1
    37    21    44    1
    38    21    45    1
    39    22    46    1
    40    22    47    1
    41    22    48    1
    42    23    24    1
    43    23    49    1
    44    23    50    1
    45    24    51    1
    46    24    52    1
    47    25    26    1
    48    25    53    1
    49    26    27   ar
    50    26    32   ar
    51    27    28   ar
    52    27    54    1
    53    28    29   ar
    54    28    55    1
    55    29    30    1
    56    29    31   ar
    57    31    32   ar
    58    31    56    1
    59    32    57    1
@<TRIPOS>SUBSTRUCTURE
     1 LIG1        1 TEMP              0 ****  ****    0 ROOT


##########                                Name:PV-001802957486.****
##########                        Cluster_Size:                   2
##########                          Grid_Score:          -41.317928
##########                     Grid_vdw_energy:          -34.555801
##########                      Grid_es_energy:           -6.762128
##########           Internal_energy_repulsive:            6.285817

@<TRIPOS>MOLECULE
PV-001802957486.****
 41 43 1 0 0
SMALL
USER_CHARGES
****

@<TRIPOS>ATOM
      1 C          15.4883  -34.0863  -11.9879 C.ar    1  LIG1       -0.1500
      2 C          16.2132  -34.5108  -10.8737 C.ar    1  LIG1       -0.1440
      3 C          17.3604  -35.2987  -11.0578 C.ar    1  LIG1       -0.1440
      4 C          17.7577  -35.6409  -12.3510 C.ar    1  LIG1       -0.1500
      5 C          17.0280  -35.2116  -13.4556 C.ar    1  LIG1        0.1110
      6 C          15.8931  -34.4333  -13.2713 C.ar    1  LIG1       -0.1500
      7 C          15.7204  -34.1078   -9.4940 C.3     1  LIG1       -0.0960
      8 BR         17.5840  -35.6840  -15.2014 Br      1  LIG1       -0.1110
      9 C          18.2260  -35.7741   -9.8919 C.3     1  LIG1        0.0440
     10 C          18.5328  -37.2462  -10.1000 C.2     1  LIG1        0.5690
     11 N          17.5297  -38.1518   -9.8502 N.am    1  LIG1       -0.5470
     12 O          19.6252  -37.6248  -10.4703 O.2     1  LIG1       -0.5700
     13 C          17.5946  -39.5567   -9.9766 C.ar    1  LIG1        0.1170
     14 C          16.5921  -40.2776  -10.6241 C.ar    1  LIG1       -0.1500
     15 C          16.7361  -41.6581  -10.7284 C.ar    1  LIG1       -0.0230
     16 C          17.8319  -42.3299  -10.1808 C.ar    1  LIG1       -0.1500
     17 C          18.8114  -41.5926   -9.5165 C.ar    1  LIG1       -0.1500
     18 C          18.6959  -40.2071   -9.4132 C.ar    1  LIG1       -0.1500
     19 N          15.7336  -42.4094  -11.4245 N.ar    1  LIG1        0.3260
     20 C          15.3817  -42.3143  -12.7156 C.ar    1  LIG1        0.0070
     21 N          14.4437  -43.1683  -12.9629 N.ar    1  LIG1       -0.3380
     22 N          14.1759  -43.8439  -11.7929 N.ar    1  LIG1       -0.3380
     23 C          14.9666  -43.3633  -10.8942 C.ar    1  LIG1        0.0360
     24 C          16.0156  -41.3401  -13.6857 C.3     1  LIG1       -0.0600
     25 H          14.6164  -33.4956  -11.8631 H       1  LIG1        0.1500
     26 H          18.6252  -36.2302  -12.5025 H       1  LIG1        0.1500
     27 H          15.3344  -34.1063  -14.1108 H       1  LIG1        0.1500
     28 H          16.5284  -33.6181   -8.9503 H       1  LIG1        0.0800
     29 H          14.8805  -33.4182   -9.5908 H       1  LIG1        0.0800
     30 H          15.3913  -35.0075   -8.9732 H       1  LIG1        0.0800
     31 H          17.6748  -35.6747   -8.9670 H       1  LIG1        0.0800
     32 H          19.1604  -35.2367   -9.8519 H       1  LIG1        0.0800
     33 H          16.6816  -37.7473   -9.4260 H       1  LIG1        0.3700
     34 H          15.7423  -39.7886  -11.0257 H       1  LIG1        0.1500
     35 H          17.9231  -43.3831  -10.2711 H       1  LIG1        0.1500
     36 H          19.6492  -42.0864   -9.0949 H       1  LIG1        0.1500
     37 H          19.4472  -39.6467   -8.9176 H       1  LIG1        0.1500
     38 H          15.0504  -43.6297   -9.8730 H       1  LIG1        0.1500
     39 H          15.6823  -41.5989  -14.6910 H       1  LIG1        0.0800
     40 H          15.6910  -40.3313  -13.4290 H       1  LIG1        0.0800
     41 H          17.0998  -41.4239  -13.6092 H       1  LIG1        0.0800
@<TRIPOS>BOND
     1     1     2   ar
     2     1     6   ar
     3     1    25    1
     4     2     3   ar
     5     2     7    1
     6     3     4   ar
     7     3     9    1
     8     4     5   ar
     9     4    26    1
    10     5     6   ar
    11     5     8    1
    12     6    27    1
    13     7    28    1
    14     7    29    1
    15     7    30    1
    16     9    10    1
    17     9    31    1
    18     9    32    1
    19    10    11   am
    20    10    12    2
    21    11    13    1
    22    11    33    1
    23    13    14   ar
    24    13    18   ar
    25    14    15   ar
    26    14    34    1
    27    15    16   ar
    28    15    19    1
    29    16    17   ar
    30    16    35    1
    31    17    18   ar
    32    17    36    1
    33    18    37    1
    34    19    20   ar
    35    19    23   ar
    36    20    21   ar
    37    20    24    1
    38    21    22   ar
    39    22    23   ar
    40    23    38    1
    41    24    39    1
    42    24    40    1
    43    24    41    1
@<TRIPOS>SUBSTRUCTURE
     1 LIG1        1 TEMP              0 ****  ****    0 ROOT


##########                                Name:PV-001802957486.****
##########                        Cluster_Size:                   4
##########                          Grid_Score:          -41.102966
##########                     Grid_vdw_energy:          -33.732281
##########                      Grid_es_energy:           -7.370685
##########           Internal_energy_repulsive:            6.287052

@<TRIPOS>MOLECULE
PV-001802957486.****
 41 43 1 0 0
SMALL
USER_CHARGES
****

@<TRIPOS>ATOM
      1 C          14.5203  -33.1492  -12.1835 C.ar    1  LIG1       -0.1500
      2 C          14.6189  -34.3183  -11.4282 C.ar    1  LIG1       -0.1440
      3 C          15.4215  -34.3286  -10.2765 C.ar    1  LIG1       -0.1440
      4 C          16.1039  -33.1693   -9.9052 C.ar    1  LIG1       -0.1500
      5 C          15.9981  -32.0082  -10.6651 C.ar    1  LIG1        0.1110
      6 C          15.2045  -32.0005  -11.8044 C.ar    1  LIG1       -0.1500
      7 C          13.8548  -35.5465  -11.8936 C.3     1  LIG1       -0.0960
      8 BR         16.9292  -30.4456  -10.1441 Br      1  LIG1       -0.1110
      9 C          15.5543  -35.5578   -9.3788 C.3     1  LIG1        0.0440
     10 C          16.3601  -36.6048  -10.1265 C.2     1  LIG1        0.5690
     11 N          16.5610  -37.8181   -9.5130 N.am    1  LIG1       -0.5470
     12 O          16.8212  -36.3889  -11.2286 O.2     1  LIG1       -0.5700
     13 C          17.2736  -38.9261  -10.0213 C.ar    1  LIG1        0.1170
     14 C          16.8226  -39.6350  -11.1339 C.ar    1  LIG1       -0.1500
     15 C          17.5902  -40.7028  -11.5901 C.ar    1  LIG1       -0.0230
     16 C          18.7690  -41.0920  -10.9492 C.ar    1  LIG1       -0.1500
     17 C          19.1897  -40.3843   -9.8239 C.ar    1  LIG1       -0.1500
     18 C          18.4451  -39.3016   -9.3580 C.ar    1  LIG1       -0.1500
     19 N          17.1607  -41.4177  -12.7556 N.ar    1  LIG1        0.3260
     20 C          17.0134  -40.9463  -14.0030 C.ar    1  LIG1        0.0070
     21 N          16.6157  -41.9047  -14.7737 N.ar    1  LIG1       -0.3380
     22 N          16.5010  -43.0398  -14.0020 N.ar    1  LIG1       -0.3380
     23 C          16.8351  -42.7106  -12.8005 C.ar    1  LIG1        0.0360
     24 C          17.2825  -39.5079  -14.3908 C.3     1  LIG1       -0.0600
     25 H          13.9221  -33.1291  -13.0590 H       1  LIG1        0.1500
     26 H          16.7080  -33.1634   -9.0347 H       1  LIG1        0.1500
     27 H          15.1234  -31.1179  -12.3861 H       1  LIG1        0.1500
     28 H          13.2307  -35.9142  -11.0789 H       1  LIG1        0.0800
     29 H          13.2223  -35.2854  -12.7435 H       1  LIG1        0.0800
     30 H          14.5783  -36.3024  -12.2001 H       1  LIG1        0.0800
     31 H          14.5742  -35.9690   -9.1798 H       1  LIG1        0.0800
     32 H          16.0742  -35.3214   -8.4637 H       1  LIG1        0.0800
     33 H          16.2372  -37.8638   -8.5353 H       1  LIG1        0.3700
     34 H          15.9192  -39.3694  -11.6195 H       1  LIG1        0.1500
     35 H          19.3399  -41.9090  -11.3128 H       1  LIG1        0.1500
     36 H          20.0816  -40.6664   -9.3253 H       1  LIG1        0.1500
     37 H          18.7723  -38.7576   -8.5090 H       1  LIG1        0.1500
     38 H          16.8674  -43.3145  -11.9316 H       1  LIG1        0.1500
     39 H          17.2664  -39.4424  -15.4789 H       1  LIG1        0.0800
     40 H          16.5005  -38.8794  -13.9637 H       1  LIG1        0.0800
     41 H          18.2598  -39.2173  -14.0049 H       1  LIG1        0.0800
@<TRIPOS>BOND
     1     1     2   ar
     2     1     6   ar
     3     1    25    1
     4     2     3   ar
     5     2     7    1
     6     3     4   ar
     7     3     9    1
     8     4     5   ar
     9     4    26    1
    10     5     6   ar
    11     5     8    1
    12     6    27    1
    13     7    28    1
    14     7    29    1
    15     7    30    1
    16     9    10    1
    17     9    31    1
    18     9    32    1
    19    10    11   am
    20    10    12    2
    21    11    13    1
    22    11    33    1
    23    13    14   ar
    24    13    18   ar
    25    14    15   ar
    26    14    34    1
    27    15    16   ar
    28    15    19    1
    29    16    17   ar
    30    16    35    1
    31    17    18   ar
    32    17    36    1
    33    18    37    1
    34    19    20   ar
    35    19    23   ar
    36    20    21   ar
    37    20    24    1
    38    21    22   ar
    39    22    23   ar
    40    23    38    1
    41    24    39    1
    42    24    40    1
    43    24    41    1
@<TRIPOS>SUBSTRUCTURE
     1 LIG1        1 TEMP              0 ****  ****    0 ROOT


##########                                Name:PV-001802957486.****
##########                        Cluster_Size:                   1
##########                          Grid_Score:          -40.436001
##########                     Grid_vdw_energy:          -35.145020
##########                      Grid_es_energy:           -5.290980
##########           Internal_energy_repulsive:           12.175784

@<TRIPOS>MOLECULE
PV-001802957486.****
 41 43 1 0 0
SMALL
USER_CHARGES
****

@<TRIPOS>ATOM
      1 C          14.6959  -33.3566  -12.2129 C.ar    1  LIG1       -0.1500
      2 C          14.8357  -34.5065  -11.4349 C.ar    1  LIG1       -0.1440
      3 C          15.5500  -34.4391  -10.2283 C.ar    1  LIG1       -0.1440
      4 C          16.1047  -33.2234   -9.8262 C.ar    1  LIG1       -0.1500
      5 C          15.9587  -32.0821  -10.6091 C.ar    1  LIG1        0.1110
      6 C          15.2527  -32.1512  -11.8027 C.ar    1  LIG1       -0.1500
      7 C          14.2124  -35.7986  -11.9358 C.3     1  LIG1       -0.0960
      8 BR         16.7162  -30.4422  -10.0458 Br      1  LIG1       -0.1110
      9 C          15.7183  -35.6448   -9.3050 C.3     1  LIG1        0.0440
     10 C          16.3796  -36.7584  -10.0969 C.2     1  LIG1        0.5690
     11 N          15.7393  -37.9732  -10.1526 N.am    1  LIG1       -0.5470
     12 O          17.4410  -36.5959  -10.6634 O.2     1  LIG1       -0.5700
     13 C          16.1701  -39.1372  -10.8259 C.ar    1  LIG1        0.1170
     14 C          17.5227  -39.3937  -11.0461 C.ar    1  LIG1       -0.1500
     15 C          17.8718  -40.5730  -11.6980 C.ar    1  LIG1       -0.0230
     16 C          16.9097  -41.4767  -12.1555 C.ar    1  LIG1       -0.1500
     17 C          15.5615  -41.1894  -11.9460 C.ar    1  LIG1       -0.1500
     18 C          15.1888  -40.0218  -11.2818 C.ar    1  LIG1       -0.1500
     19 N          19.2595  -40.8702  -11.8981 N.ar    1  LIG1        0.3260
     20 C          20.2024  -41.0672  -10.9643 C.ar    1  LIG1        0.0070
     21 N          21.3287  -41.3191  -11.5461 N.ar    1  LIG1       -0.3380
     22 N          21.1119  -41.2863  -12.9059 N.ar    1  LIG1       -0.3380
     23 C          19.8628  -41.0149  -13.0790 C.ar    1  LIG1        0.0360
     24 C          19.9345  -40.9918   -9.4762 C.3     1  LIG1       -0.0600
     25 H          14.1638  -33.3946  -13.1295 H       1  LIG1        0.1500
     26 H          16.6410  -33.1591   -8.9145 H       1  LIG1        0.1500
     27 H          15.1414  -31.2838  -12.4019 H       1  LIG1        0.1500
     28 H          13.5630  -36.2101  -11.1629 H       1  LIG1        0.0800
     29 H          13.6243  -35.5991  -12.8329 H       1  LIG1        0.0800
     30 H          15.0167  -36.4938  -12.1779 H       1  LIG1        0.0800
     31 H          14.7467  -35.9940   -8.9839 H       1  LIG1        0.0800
     32 H          16.3491  -35.4090   -8.4624 H       1  LIG1        0.0800
     33 H          14.9108  -38.0503   -9.5439 H       1  LIG1        0.3700
     34 H          18.2659  -38.7094  -10.7270 H       1  LIG1        0.1500
     35 H          17.1966  -42.3703  -12.6504 H       1  LIG1        0.1500
     36 H          14.8183  -41.8641  -12.2870 H       1  LIG1        0.1500
     37 H          14.1636  -39.8103  -11.1132 H       1  LIG1        0.1500
     38 H          19.3272  -40.9042  -13.9855 H       1  LIG1        0.1500
     39 H          20.8136  -41.3710   -8.9547 H       1  LIG1        0.0800
     40 H          19.7559  -39.9506   -9.2062 H       1  LIG1        0.0800
     41 H          19.0608  -41.6017   -9.2456 H       1  LIG1        0.0800
@<TRIPOS>BOND
     1     1     2   ar
     2     1     6   ar
     3     1    25    1
     4     2     3   ar
     5     2     7    1
     6     3     4   ar
     7     3     9    1
     8     4     5   ar
     9     4    26    1
    10     5     6   ar
    11     5     8    1
    12     6    27    1
    13     7    28    1
    14     7    29    1
    15     7    30    1
    16     9    10    1
    17     9    31    1
    18     9    32    1
    19    10    11   am
    20    10    12    2
    21    11    13    1
    22    11    33    1
    23    13    14   ar
    24    13    18   ar
    25    14    15   ar
    26    14    34    1
    27    15    16   ar
    28    15    19    1
    29    16    17   ar
    30    16    35    1
    31    17    18   ar
    32    17    36    1
    33    18    37    1
    34    19    20   ar
    35    19    23   ar
    36    20    21   ar
    37    20    24    1
    38    21    22   ar
    39    22    23   ar
    40    23    38    1
    41    24    39    1
    42    24    40    1
    43    24    41    1
@<TRIPOS>SUBSTRUCTURE
     1 LIG1        1 TEMP              0 ****  ****    0 ROOT


##########                                Name:PV-001802957486.****
##########                        Cluster_Size:                   3
##########                          Grid_Score:          -39.737572
##########                     Grid_vdw_energy:          -32.246666
##########                      Grid_es_energy:           -7.490905
##########           Internal_energy_repulsive:           13.389086

@<TRIPOS>MOLECULE
PV-001802957486.****
 41 43 1 0 0
SMALL
USER_CHARGES
****

@<TRIPOS>ATOM
      1 C          11.7892  -38.0186  -15.7850 C.ar    1  LIG1       -0.1500
      2 C          11.6767  -38.2293  -14.4102 C.ar    1  LIG1       -0.1440
      3 C          12.7974  -38.6666  -13.6866 C.ar    1  LIG1       -0.1440
      4 C          14.0045  -38.8799  -14.3535 C.ar    1  LIG1       -0.1500
      5 C          14.1061  -38.6659  -15.7249 C.ar    1  LIG1        0.1110
      6 C          12.9963  -38.2343  -16.4388 C.ar    1  LIG1       -0.1500
      7 C          10.3308  -37.9845  -13.7488 C.3     1  LIG1       -0.0960
      8 BR         15.7522  -38.9584  -16.6110 Br      1  LIG1       -0.1110
      9 C          12.7641  -38.8874  -12.1751 C.3     1  LIG1        0.0440
     10 C          14.1897  -38.8282  -11.6568 C.2     1  LIG1        0.5690
     11 N          14.6150  -37.6544  -11.0824 N.am    1  LIG1       -0.5470
     12 O          14.9412  -39.7777  -11.7447 O.2     1  LIG1       -0.5700
     13 C          15.8892  -37.3804  -10.5389 C.ar    1  LIG1        0.1170
     14 C          17.0588  -37.7689  -11.1907 C.ar    1  LIG1       -0.1500
     15 C          18.2786  -37.4445  -10.6040 C.ar    1  LIG1       -0.0230
     16 C          18.3548  -36.7746   -9.3805 C.ar    1  LIG1       -0.1500
     17 C          17.1728  -36.4161   -8.7336 C.ar    1  LIG1       -0.1500
     18 C          15.9395  -36.7169   -9.3098 C.ar    1  LIG1       -0.1500
     19 N          19.4905  -37.8027  -11.2802 N.ar    1  LIG1        0.3260
     20 C          19.9180  -37.3843  -12.4810 C.ar    1  LIG1        0.0070
     21 N          21.0624  -37.9283  -12.7363 N.ar    1  LIG1       -0.3380
     22 N          21.3923  -38.7278  -11.6644 N.ar    1  LIG1       -0.3380
     23 C          20.4287  -38.6278  -10.8127 C.ar    1  LIG1        0.0360
     24 C          19.1406  -36.4265  -13.3585 C.3     1  LIG1       -0.0600
     25 H          10.9490  -37.6938  -16.3449 H       1  LIG1        0.1500
     26 H          14.8586  -39.2044  -13.8168 H       1  LIG1        0.1500
     27 H          13.0704  -38.0722  -17.4839 H       1  LIG1        0.1500
     28 H          10.4575  -37.2916  -12.9167 H       1  LIG1        0.0800
     29 H           9.6378  -37.5550  -14.4739 H       1  LIG1        0.0800
     30 H           9.9426  -38.9422  -13.4010 H       1  LIG1        0.0800
     31 H          12.3709  -39.8716  -11.9610 H       1  LIG1        0.0800
     32 H          12.1921  -38.1194  -11.6785 H       1  LIG1        0.0800
     33 H          13.9496  -36.8711  -11.1627 H       1  LIG1        0.3700
     34 H          17.0213  -38.2980  -12.1079 H       1  LIG1        0.1500
     35 H          19.2948  -36.5365   -8.9499 H       1  LIG1        0.1500
     36 H          17.2123  -35.9076   -7.8044 H       1  LIG1        0.1500
     37 H          15.0417  -36.4336   -8.8222 H       1  LIG1        0.1500
     38 H          20.3247  -39.0985   -9.8701 H       1  LIG1        0.1500
     39 H          19.7902  -36.1140  -14.1763 H       1  LIG1        0.0800
     40 H          18.2646  -36.9447  -13.7499 H       1  LIG1        0.0800
     41 H          18.8400  -35.5668  -12.7593 H       1  LIG1        0.0800
@<TRIPOS>BOND
     1     1     2   ar
     2     1     6   ar
     3     1    25    1
     4     2     3   ar
     5     2     7    1
     6     3     4   ar
     7     3     9    1
     8     4     5   ar
     9     4    26    1
    10     5     6   ar
    11     5     8    1
    12     6    27    1
    13     7    28    1
    14     7    29    1
    15     7    30    1
    16     9    10    1
    17     9    31    1
    18     9    32    1
    19    10    11   am
    20    10    12    2
    21    11    13    1
    22    11    33    1
    23    13    14   ar
    24    13    18   ar
    25    14    15   ar
    26    14    34    1
    27    15    16   ar
    28    15    19    1
    29    16    17   ar
    30    16    35    1
    31    17    18   ar
    32    17    36    1
    33    18    37    1
    34    19    20   ar
    35    19    23   ar
    36    20    21   ar
    37    20    24    1
    38    21    22   ar
    39    22    23   ar
    40    23    38    1
    41    24    39    1
    42    24    40    1
    43    24    41    1
@<TRIPOS>SUBSTRUCTURE
     1 LIG1        1 TEMP              0 ****  ****    0 ROOT


##########                                Name:PV-001794469959.****
##########                        Cluster_Size:                   2
##########                          Grid_Score:          -43.118076
##########                     Grid_vdw_energy:          -35.052979
##########                      Grid_es_energy:           -8.065099
##########           Internal_energy_repulsive:           12.114685

@<TRIPOS>MOLECULE
PV-001794469959.****
 40 42 1 0 0
SMALL
USER_CHARGES
****

@<TRIPOS>ATOM
      1 C          14.5303  -33.7420  -11.9336 C.ar    1  LIG1       -0.1500
      2 C          14.8665  -34.7734  -11.0550 C.ar    1  LIG1       -0.1440
      3 C          15.7852  -34.5288  -10.0217 C.ar    1  LIG1       -0.1440
      4 C          16.3588  -33.2602   -9.9072 C.ar    1  LIG1       -0.1500
      5 C          16.0158  -32.2386  -10.7859 C.ar    1  LIG1        0.1110
      6 C          15.0994  -32.4816  -11.8001 C.ar    1  LIG1       -0.1500
      7 C          14.2034  -36.1259  -11.2523 C.3     1  LIG1       -0.0960
      8 BR         16.7917  -30.5238  -10.5886 Br      1  LIG1       -0.1110
      9 C          16.1903  -35.5960   -9.0049 C.3     1  LIG1        0.0440
     10 C          16.8694  -36.7435   -9.7378 C.2     1  LIG1        0.5690
     11 N          16.4501  -38.0351   -9.6309 N.am    1  LIG1       -0.5470
     12 O          17.8251  -36.5720  -10.4615 O.2     1  LIG1       -0.5700
     13 C          17.0192  -39.1471  -10.2712 C.ar    1  LIG1        0.1170
     14 C          18.4042  -39.2886  -10.3198 C.ar    1  LIG1       -0.1500
     15 C          18.9251  -40.4103  -10.9632 C.ar    1  LIG1       -0.0230
     16 C          18.0985  -41.3672  -11.5629 C.ar    1  LIG1       -0.1500
     17 C          16.7162  -41.1987  -11.5035 C.ar    1  LIG1       -0.1500
     18 C          16.1720  -40.0889  -10.8588 C.ar    1  LIG1       -0.1500
     19 N          20.3530  -40.5784  -11.0147 N.ar    1  LIG1        0.5930
     20 C          21.0744  -41.5623  -10.4743 C.ar    1  LIG1        0.0070
     21 N          22.3111  -41.3489  -10.7323 N.ar    1  LIG1       -0.3380
     22 N          22.3553  -40.1926  -11.4494 N.ar    1  LIG1        0.0000
     23 N          21.1563  -39.7193  -11.6189 N.ar    1  LIG1       -0.4180
     24 C          20.4897  -42.7168   -9.6878 C.3     1  LIG1       -0.0600
     25 H          13.8312  -33.9157  -12.7121 H       1  LIG1        0.1500
     26 H          17.0569  -33.0618   -9.1375 H       1  LIG1        0.1500
     27 H          14.8356  -31.7059  -12.4728 H       1  LIG1        0.1500
     28 H          13.4211  -36.2380  -10.5024 H       1  LIG1        0.0800
     29 H          13.7643  -36.1723  -12.2494 H       1  LIG1        0.0800
     30 H          14.9460  -36.9164  -11.1553 H       1  LIG1        0.0800
     31 H          15.3141  -35.9823   -8.5085 H       1  LIG1        0.0800
     32 H          16.8908  -35.1748   -8.3002 H       1  LIG1        0.0800
     33 H          15.6918  -38.1811   -8.9514 H       1  LIG1        0.3700
     34 H          19.0394  -38.5569   -9.8895 H       1  LIG1        0.1500
     35 H          18.5115  -42.2054  -12.0634 H       1  LIG1        0.1500
     36 H          16.0750  -41.9163  -11.9497 H       1  LIG1        0.1500
     37 H          15.1215  -39.9626  -10.8044 H       1  LIG1        0.1500
     38 H          21.3144  -43.2847   -9.2551 H       1  LIG1        0.0800
     39 H          19.8528  -42.3178   -8.8993 H       1  LIG1        0.0800
     40 H          19.9166  -43.3490  -10.3653 H       1  LIG1        0.0800
@<TRIPOS>BOND
     1     1     2   ar
     2     1     6   ar
     3     1    25    1
     4     2     3   ar
     5     2     7    1
     6     3     4   ar
     7     3     9    1
     8     4     5   ar
     9     4    26    1
    10     5     6   ar
    11     5     8    1
    12     6    27    1
    13     7    28    1
    14     7    29    1
    15     7    30    1
    16     9    10    1
    17     9    31    1
    18     9    32    1
    19    10    11   am
    20    10    12    2
    21    11    13    1
    22    11    33    1
    23    13    14   ar
    24    13    18   ar
    25    14    15   ar
    26    14    34    1
    27    15    16   ar
    28    15    19    1
    29    16    17   ar
    30    16    35    1
    31    17    18   ar
    32    17    36    1
    33    18    37    1
    34    19    20   ar
    35    19    23   ar
    36    20    21   ar
    37    20    24    1
    38    21    22   ar
    39    22    23   ar
    40    24    38    1
    41    24    39    1
    42    24    40    1
@<TRIPOS>SUBSTRUCTURE
     1 LIG1        1 TEMP              0 ****  ****    0 ROOT


##########                                Name:PV-001794469959.****
##########                        Cluster_Size:                   5
##########                          Grid_Score:          -40.456043
##########                     Grid_vdw_energy:          -34.610580
##########                      Grid_es_energy:           -5.845464
##########           Internal_energy_repulsive:            5.193148

@<TRIPOS>MOLECULE
PV-001794469959.****
 40 42 1 0 0
SMALL
USER_CHARGES
****

@<TRIPOS>ATOM
      1 C          14.4402  -33.7415  -12.5246 C.ar    1  LIG1       -0.1500
      2 C          14.5089  -34.7661  -11.5791 C.ar    1  LIG1       -0.1440
      3 C          15.2562  -34.5745  -10.4059 C.ar    1  LIG1       -0.1440
      4 C          15.9321  -33.3663  -10.2192 C.ar    1  LIG1       -0.1500
      5 C          15.8557  -32.3507  -11.1658 C.ar    1  LIG1        0.1110
      6 C          15.1076  -32.5402  -12.3199 C.ar    1  LIG1       -0.1500
      7 C          13.7507  -36.0520  -11.8612 C.3     1  LIG1       -0.0960
      8 BR         16.7626  -30.7159  -10.8715 Br      1  LIG1       -0.1110
      9 C          15.3649  -35.6363   -9.3114 C.3     1  LIG1        0.0440
     10 C          16.2387  -36.7758   -9.8143 C.2     1  LIG1        0.5690
     11 N          16.1549  -38.0413   -9.3175 N.am    1  LIG1       -0.5470
     12 O          17.0614  -36.6211  -10.6894 O.2     1  LIG1       -0.5700
     13 C          16.9215  -39.1444   -9.7250 C.ar    1  LIG1        0.1170
     14 C          16.3030  -40.2366  -10.3293 C.ar    1  LIG1       -0.1500
     15 C          17.1040  -41.3083  -10.7207 C.ar    1  LIG1       -0.0230
     16 C          18.4869  -41.3127  -10.5059 C.ar    1  LIG1       -0.1500
     17 C          19.0796  -40.2090   -9.8951 C.ar    1  LIG1       -0.1500
     18 C          18.2999  -39.1222   -9.5021 C.ar    1  LIG1       -0.1500
     19 N          16.4841  -42.4408  -11.3554 N.ar    1  LIG1        0.5930
     20 C          16.6903  -42.8901  -12.5947 C.ar    1  LIG1        0.0070
     21 N          15.9418  -43.9121  -12.7867 N.ar    1  LIG1       -0.3380
     22 N          15.2463  -44.0957  -11.6311 N.ar    1  LIG1        0.0000
     23 N          15.5761  -43.1923  -10.7561 N.ar    1  LIG1       -0.4180
     24 C          17.6527  -42.2625  -13.5812 C.3     1  LIG1       -0.0600
     25 H          13.8714  -33.8745  -13.4100 H       1  LIG1        0.1500
     26 H          16.5040  -33.2089   -9.3432 H       1  LIG1        0.1500
     27 H          15.0471  -31.7690  -13.0446 H       1  LIG1        0.1500
     28 H          12.8434  -36.0556  -11.2582 H       1  LIG1        0.0800
     29 H          13.4879  -36.0932  -12.9187 H       1  LIG1        0.0800
     30 H          14.3778  -36.9086  -11.6187 H       1  LIG1        0.0800
     31 H          14.3876  -36.0329   -9.0856 H       1  LIG1        0.0800
     32 H          15.8289  -35.2063   -8.4371 H       1  LIG1        0.0800
     33 H          15.5132  -38.1435   -8.5201 H       1  LIG1        0.3700
     34 H          15.2529  -40.2530  -10.4745 H       1  LIG1        0.1500
     35 H          19.0792  -42.1434  -10.7939 H       1  LIG1        0.1500
     36 H          20.1270  -40.1943   -9.7280 H       1  LIG1        0.1500
     37 H          18.7487  -38.2781   -9.0454 H       1  LIG1        0.1500
     38 H          17.5135  -42.7491  -14.5475 H       1  LIG1        0.0800
     39 H          17.4311  -41.1988  -13.6601 H       1  LIG1        0.0800
     40 H          18.6711  -42.4202  -13.2275 H       1  LIG1        0.0800
@<TRIPOS>BOND
     1     1     2   ar
     2     1     6   ar
     3     1    25    1
     4     2     3   ar
     5     2     7    1
     6     3     4   ar
     7     3     9    1
     8     4     5   ar
     9     4    26    1
    10     5     6   ar
    11     5     8    1
    12     6    27    1
    13     7    28    1
    14     7    29    1
    15     7    30    1
    16     9    10    1
    17     9    31    1
    18     9    32    1
    19    10    11   am
    20    10    12    2
    21    11    13    1
    22    11    33    1
    23    13    14   ar
    24    13    18   ar
    25    14    15   ar
    26    14    34    1
    27    15    16   ar
    28    15    19    1
    29    16    17   ar
    30    16    35    1
    31    17    18   ar
    32    17    36    1
    33    18    37    1
    34    19    20   ar
    35    19    23   ar
    36    20    21   ar
    37    20    24    1
    38    21    22   ar
    39    22    23   ar
    40    24    38    1
    41    24    39    1
    42    24    40    1
@<TRIPOS>SUBSTRUCTURE
     1 LIG1        1 TEMP              0 ****  ****    0 ROOT


##########                                Name:PV-001794469959.****
##########                        Cluster_Size:                   1
##########                          Grid_Score:          -32.650627
##########                     Grid_vdw_energy:          -27.940069
##########                      Grid_es_energy:           -4.710557
##########           Internal_energy_repulsive:           14.209331

@<TRIPOS>MOLECULE
PV-001794469959.****
 40 42 1 0 0
SMALL
USER_CHARGES
****

@<TRIPOS>ATOM
      1 C          22.9597  -40.1888  -11.8842 C.ar    1  LIG1       -0.1500
      2 C          21.5809  -40.3753  -11.7710 C.ar    1  LIG1       -0.1440
      3 C          21.0845  -41.3244  -10.8631 C.ar    1  LIG1       -0.1440
      4 C          21.9846  -42.0769  -10.1049 C.ar    1  LIG1       -0.1500
      5 C          23.3563  -41.8823  -10.2231 C.ar    1  LIG1        0.1110
      6 C          23.8430  -40.9358  -11.1147 C.ar    1  LIG1       -0.1500
      7 C          20.6700  -39.5216  -12.6367 C.3     1  LIG1       -0.0960
      8 BR         24.5489  -42.9002   -9.1634 Br      1  LIG1       -0.1110
      9 C          19.5897  -41.5745  -10.6623 C.3     1  LIG1        0.0440
     10 C          18.8891  -40.2396  -10.4577 C.2     1  LIG1        0.5690
     11 N          19.4661  -39.2004   -9.7924 N.am    1  LIG1       -0.5470
     12 O          17.7737  -40.0245  -10.8776 O.2     1  LIG1       -0.5700
     13 C          18.8897  -37.9416   -9.5614 C.ar    1  LIG1        0.1170
     14 C          18.3272  -37.2293  -10.6182 C.ar    1  LIG1       -0.1500
     15 C          17.7633  -35.9847  -10.3418 C.ar    1  LIG1       -0.0230
     16 C          17.7679  -35.4428   -9.0514 C.ar    1  LIG1       -0.1500
     17 C          18.3415  -36.1747   -8.0131 C.ar    1  LIG1       -0.1500
     18 C          18.9046  -37.4250   -8.2640 C.ar    1  LIG1       -0.1500
     19 N          17.1688  -35.2391  -11.4189 N.ar    1  LIG1        0.5930
     20 C          15.8902  -34.8802  -11.5488 C.ar    1  LIG1        0.0070
     21 N          15.7579  -34.2371  -12.6490 N.ar    1  LIG1       -0.3380
     22 N          16.9932  -34.2035  -13.2200 N.ar    1  LIG1        0.0000
     23 N          17.8561  -34.8203  -12.4681 N.ar    1  LIG1       -0.4180
     24 C          14.8058  -35.2057  -10.5430 C.3     1  LIG1       -0.0600
     25 H          23.3433  -39.4684  -12.5617 H       1  LIG1        0.1500
     26 H          21.6264  -42.7999   -9.4208 H       1  LIG1        0.1500
     27 H          24.8880  -40.7845  -11.2087 H       1  LIG1        0.1500
     28 H          20.2437  -38.7347  -12.0156 H       1  LIG1        0.0800
     29 H          21.2511  -39.0761  -13.4447 H       1  LIG1        0.0800
     30 H          19.8845  -40.1418  -13.0658 H       1  LIG1        0.0800
     31 H          19.4329  -42.1779   -9.7821 H       1  LIG1        0.0800
     32 H          19.1819  -42.0462  -11.5431 H       1  LIG1        0.0800
     33 H          20.3776  -39.4201   -9.3693 H       1  LIG1        0.3700
     34 H          18.3403  -37.6205  -11.6035 H       1  LIG1        0.1500
     35 H          17.3503  -34.4872   -8.8615 H       1  LIG1        0.1500
     36 H          18.3503  -35.7805   -7.0284 H       1  LIG1        0.1500
     37 H          19.3335  -37.9875   -7.4753 H       1  LIG1        0.1500
     38 H          13.8465  -34.9118  -10.9713 H       1  LIG1        0.0800
     39 H          14.8182  -36.2773  -10.3474 H       1  LIG1        0.0800
     40 H          14.9940  -34.6434   -9.6290 H       1  LIG1        0.0800
@<TRIPOS>BOND
     1     1     2   ar
     2     1     6   ar
     3     1    25    1
     4     2     3   ar
     5     2     7    1
     6     3     4   ar
     7     3     9    1
     8     4     5   ar
     9     4    26    1
    10     5     6   ar
    11     5     8    1
    12     6    27    1
    13     7    28    1
    14     7    29    1
    15     7    30    1
    16     9    10    1
    17     9    31    1
    18     9    32    1
    19    10    11   am
    20    10    12    2
    21    11    13    1
    22    11    33    1
    23    13    14   ar
    24    13    18   ar
    25    14    15   ar
    26    14    34    1
    27    15    16   ar
    28    15    19    1
    29    16    17   ar
    30    16    35    1
    31    17    18   ar
    32    17    36    1
    33    18    37    1
    34    19    20   ar
    35    19    23   ar
    36    20    21   ar
    37    20    24    1
    38    21    22   ar
    39    22    23   ar
    40    24    38    1
    41    24    39    1
    42    24    40    1
@<TRIPOS>SUBSTRUCTURE
     1 LIG1        1 TEMP              0 ****  ****    0 ROOT


##########                                Name:PV-001794469959.****
##########                        Cluster_Size:                   1
##########                          Grid_Score:          -32.379303
##########                     Grid_vdw_energy:          -29.830551
##########                      Grid_es_energy:           -2.548752
##########           Internal_energy_repulsive:            6.445747

@<TRIPOS>MOLECULE
PV-001794469959.****
 40 42 1 0 0
SMALL
USER_CHARGES
****

@<TRIPOS>ATOM
      1 C          17.5360  -35.4038  -11.4413 C.ar    1  LIG1       -0.1500
      2 C          16.7097  -36.4473  -11.0204 C.ar    1  LIG1       -0.1440
      3 C          16.0087  -37.2013  -11.9751 C.ar    1  LIG1       -0.1440
      4 C          16.1389  -36.8774  -13.3277 C.ar    1  LIG1       -0.1500
      5 C          16.9662  -35.8376  -13.7373 C.ar    1  LIG1        0.1110
      6 C          17.6656  -35.1007  -12.7910 C.ar    1  LIG1       -0.1500
      7 C          16.6174  -36.7304   -9.5307 C.3     1  LIG1       -0.0960
      8 BR         17.1408  -35.4399  -15.5793 Br      1  LIG1       -0.1110
      9 C          15.1013  -38.3732  -11.6001 C.3     1  LIG1        0.0440
     10 C          15.5970  -39.6266  -12.3057 C.2     1  LIG1        0.5690
     11 N          15.0691  -40.0659  -13.4820 N.am    1  LIG1       -0.5470
     12 O          16.4937  -40.3073  -11.8593 O.2     1  LIG1       -0.5700
     13 C          15.4679  -41.2077  -14.1946 C.ar    1  LIG1        0.1170
     14 C          15.8536  -41.0960  -15.5285 C.ar    1  LIG1       -0.1500
     15 C          16.2451  -42.2557  -16.1958 C.ar    1  LIG1       -0.0230
     16 C          16.2409  -43.5059  -15.5668 C.ar    1  LIG1       -0.1500
     17 C          15.8460  -43.5900  -14.2327 C.ar    1  LIG1       -0.1500
     18 C          15.4578  -42.4426  -13.5426 C.ar    1  LIG1       -0.1500
     19 N          16.6562  -42.1582  -17.5710 N.ar    1  LIG1        0.5930
     20 C          17.8579  -42.4354  -18.0804 C.ar    1  LIG1        0.0070
     21 N          17.8262  -42.2126  -19.3417 N.ar    1  LIG1       -0.3380
     22 N          16.5665  -41.7776  -19.6189 N.ar    1  LIG1        0.0000
     23 N          15.8514  -41.7411  -18.5337 N.ar    1  LIG1       -0.4180
     24 C          19.0383  -42.9229  -17.2667 C.3     1  LIG1       -0.0600
     25 H          18.0755  -34.8341  -10.7276 H       1  LIG1        0.1500
     26 H          15.6128  -37.4324  -14.0586 H       1  LIG1        0.1500
     27 H          18.2969  -34.3066  -13.0986 H       1  LIG1        0.1500
     28 H          17.2215  -37.6097   -9.3097 H       1  LIG1        0.0800
     29 H          17.0001  -35.8740   -8.9747 H       1  LIG1        0.0800
     30 H          15.5780  -36.8973   -9.2525 H       1  LIG1        0.0800
     31 H          14.0926  -38.1764  -11.9275 H       1  LIG1        0.0800
     32 H          15.1464  -38.5371  -10.5344 H       1  LIG1        0.0800
     33 H          14.2553  -39.5290  -13.8097 H       1  LIG1        0.3700
     34 H          15.8372  -40.1572  -16.0208 H       1  LIG1        0.1500
     35 H          16.5248  -44.3807  -16.0939 H       1  LIG1        0.1500
     36 H          15.8404  -44.5291  -13.7396 H       1  LIG1        0.1500
     37 H          15.1655  -42.5020  -12.5260 H       1  LIG1        0.1500
     38 H          19.9158  -42.9336  -17.9146 H       1  LIG1        0.0800
     39 H          19.1952  -42.2409  -16.4318 H       1  LIG1        0.0800
     40 H          18.8266  -43.9300  -16.9089 H       1  LIG1        0.0800
@<TRIPOS>BOND
     1     1     2   ar
     2     1     6   ar
     3     1    25    1
     4     2     3   ar
     5     2     7    1
     6     3     4   ar
     7     3     9    1
     8     4     5   ar
     9     4    26    1
    10     5     6   ar
    11     5     8    1
    12     6    27    1
    13     7    28    1
    14     7    29    1
    15     7    30    1
    16     9    10    1
    17     9    31    1
    18     9    32    1
    19    10    11   am
    20    10    12    2
    21    11    13    1
    22    11    33    1
    23    13    14   ar
    24    13    18   ar
    25    14    15   ar
    26    14    34    1
    27    15    16   ar
    28    15    19    1
    29    16    17   ar
    30    16    35    1
    31    17    18   ar
    32    17    36    1
    33    18    37    1
    34    19    20   ar
    35    19    23   ar
    36    20    21   ar
    37    20    24    1
    38    21    22   ar
    39    22    23   ar
    40    24    38    1
    41    24    39    1
    42    24    40    1
@<TRIPOS>SUBSTRUCTURE
     1 LIG1        1 TEMP              0 ****  ****    0 ROOT


##########                                Name:PV-001794469959.****
##########                        Cluster_Size:                   1
##########                          Grid_Score:          -31.892902
##########                     Grid_vdw_energy:          -27.940992
##########                      Grid_es_energy:           -3.951909
##########           Internal_energy_repulsive:           12.952829

@<TRIPOS>MOLECULE
PV-001794469959.****
 40 42 1 0 0
SMALL
USER_CHARGES
****

@<TRIPOS>ATOM
      1 C          15.9114  -34.4525  -13.0211 C.ar    1  LIG1       -0.1500
      2 C          16.3662  -34.7758  -11.7415 C.ar    1  LIG1       -0.1440
      3 C          17.0249  -35.9977  -11.5307 C.ar    1  LIG1       -0.1440
      4 C          17.1940  -36.8740  -12.6054 C.ar    1  LIG1       -0.1500
      5 C          16.7394  -36.5421  -13.8769 C.ar    1  LIG1        0.1110
      6 C          16.0975  -35.3285  -14.0833 C.ar    1  LIG1       -0.1500
      7 C          16.1362  -33.7711  -10.6254 C.3     1  LIG1       -0.0960
      8 BR         17.0064  -37.7401  -15.3173 Br      1  LIG1       -0.1110
      9 C          17.5726  -36.4180  -10.1667 C.3     1  LIG1        0.0440
     10 C          18.1646  -37.8148  -10.2816 C.2     1  LIG1        0.5690
     11 N          17.4797  -38.9358   -9.9213 N.am    1  LIG1       -0.5470
     12 O          19.2832  -38.0097  -10.7028 O.2     1  LIG1       -0.5700
     13 C          17.9518  -40.2556   -9.9959 C.ar    1  LIG1        0.1170
     14 C          17.1366  -41.2579  -10.5168 C.ar    1  LIG1       -0.1500
     15 C          17.6481  -42.5534  -10.5745 C.ar    1  LIG1       -0.0230
     16 C          18.9328  -42.8607  -10.1122 C.ar    1  LIG1       -0.1500
     17 C          19.7259  -41.8396   -9.5915 C.ar    1  LIG1       -0.1500
     18 C          19.2387  -40.5348   -9.5308 C.ar    1  LIG1       -0.1500
     19 N          16.8241  -43.5997  -11.1186 N.ar    1  LIG1        0.5930
     20 C          17.0576  -44.3325  -12.2090 C.ar    1  LIG1        0.0070
     21 N          16.0840  -45.1506  -12.3654 N.ar    1  LIG1       -0.3380
     22 N          15.2184  -44.9107  -11.3426 N.ar    1  LIG1        0.0000
     23 N          15.6704  -43.9585  -10.5814 N.ar    1  LIG1       -0.4180
     24 C          18.2794  -44.1847  -13.0914 C.3     1  LIG1       -0.0600
     25 H          15.4198  -33.5281  -13.1910 H       1  LIG1        0.1500
     26 H          17.6832  -37.8009  -12.4615 H       1  LIG1        0.1500
     27 H          15.7486  -35.0715  -15.0508 H       1  LIG1        0.1500
     28 H          17.0751  -33.2545  -10.4290 H       1  LIG1        0.0800
     29 H          15.3798  -33.0501  -10.9370 H       1  LIG1        0.0800
     30 H          15.7867  -34.2876   -9.7328 H       1  LIG1        0.0800
     31 H          16.7736  -36.4470   -9.4428 H       1  LIG1        0.0800
     32 H          18.3537  -35.7364   -9.8666 H       1  LIG1        0.0800
     33 H          16.5643  -38.7541   -9.4888 H       1  LIG1        0.3700
     34 H          16.1531  -41.0397  -10.8473 H       1  LIG1        0.1500
     35 H          19.3000  -43.8545  -10.1473 H       1  LIG1        0.1500
     36 H          20.7034  -42.0543   -9.2401 H       1  LIG1        0.1500
     37 H          19.8423  -39.7550   -9.1436 H       1  LIG1        0.1500
     38 H          18.1380  -44.8096  -13.9742 H       1  LIG1        0.0800
     39 H          18.3785  -43.1395  -13.3820 H       1  LIG1        0.0800
     40 H          19.1561  -44.5166  -12.5361 H       1  LIG1        0.0800
@<TRIPOS>BOND
     1     1     2   ar
     2     1     6   ar
     3     1    25    1
     4     2     3   ar
     5     2     7    1
     6     3     4   ar
     7     3     9    1
     8     4     5   ar
     9     4    26    1
    10     5     6   ar
    11     5     8    1
    12     6    27    1
    13     7    28    1
    14     7    29    1
    15     7    30    1
    16     9    10    1
    17     9    31    1
    18     9    32    1
    19    10    11   am
    20    10    12    2
    21    11    13    1
    22    11    33    1
    23    13    14   ar
    24    13    18   ar
    25    14    15   ar
    26    14    34    1
    27    15    16   ar
    28    15    19    1
    29    16    17   ar
    30    16    35    1
    31    17    18   ar
    32    17    36    1
    33    18    37    1
    34    19    20   ar
    35    19    23   ar
    36    20    21   ar
    37    20    24    1
    38    21    22   ar
    39    22    23   ar
    40    24    38    1
    41    24    39    1
    42    24    40    1
@<TRIPOS>SUBSTRUCTURE
     1 LIG1        1 TEMP              0 ****  ****    0 ROOT


##########                                Name:    Z1551029475.****
##########                        Cluster_Size:                   6
##########                          Grid_Score:          -43.499416
##########                     Grid_vdw_energy:          -35.465141
##########                      Grid_es_energy:           -8.034274
##########           Internal_energy_repulsive:            5.677196

@<TRIPOS>MOLECULE
Z1551029475.****
 39 41 1 0 0
SMALL
USER_CHARGES
****

@<TRIPOS>ATOM
      1 C          18.6488  -39.7252   -9.2385 C.ar    1  LIG1       -0.1500
      2 C          19.1182  -40.9117   -9.8009 C.ar    1  LIG1       -0.1500
      3 C          18.4281  -41.5122  -10.8538 C.ar    1  LIG1       -0.1500
      4 C          17.2597  -40.9106  -11.3323 C.ar    1  LIG1       -0.0230
      5 C          16.7576  -39.7450  -10.7605 C.ar    1  LIG1       -0.1500
      6 C          17.4770  -39.1477   -9.7304 C.ar    1  LIG1        0.1170
      7 N          17.0066  -37.9521   -9.1589 N.am    1  LIG1       -0.5470
      8 C          17.2127  -36.6888   -9.6296 C.2     1  LIG1        0.5690
      9 O          17.8615  -36.6214  -10.6491 O.2     1  LIG1       -0.5700
     10 C          16.6618  -35.4490   -8.9403 C.3     1  LIG1        0.0440
     11 N          16.5684  -41.4755  -12.4595 N.ar    1  LIG1        0.3260
     12 C          15.2789  -41.8695  -12.5095 C.ar    1  LIG1        0.2430
     13 N          14.9816  -42.2463  -13.7184 N.ar    1  LIG1       -0.3380
     14 N          16.1254  -42.1002  -14.4776 N.ar    1  LIG1       -0.3380
     15 C          17.0559  -41.6446  -13.7115 C.ar    1  LIG1        0.0060
     16 C          18.4829  -41.3420  -14.1176 C.3     1  LIG1       -0.0600
     17 S          14.2222  -41.8583  -11.1219 S.3     1  LIG1       -0.2360
     18 C          15.9999  -34.5473   -9.9812 C.ar    1  LIG1       -0.1430
     19 C          15.0435  -35.0508  -10.8666 C.ar    1  LIG1        0.1900
     20 C          14.3786  -34.2484  -11.7847 C.ar    1  LIG1       -0.1500
     21 C          14.6893  -32.8944  -11.8424 C.ar    1  LIG1       -0.1500
     22 C          15.6630  -32.3664  -10.9942 C.ar    1  LIG1        0.1110
     23 C          16.3193  -33.1886  -10.0746 C.ar    1  LIG1       -0.1500
     24 F          14.7278  -36.3671  -10.8386 F       1  LIG1       -0.1900
     25 BR         16.0893  -30.5269  -11.0819 Br      1  LIG1       -0.1110
     26 H          19.1757  -39.2625   -8.4437 H       1  LIG1        0.1500
     27 H          20.0052  -41.3578   -9.4279 H       1  LIG1        0.1500
     28 H          18.7872  -42.4132  -11.2828 H       1  LIG1        0.1500
     29 H          15.8471  -39.3222  -11.0966 H       1  LIG1        0.1500
     30 H          16.4386  -37.9982   -8.3020 H       1  LIG1        0.3700
     31 H          17.4887  -34.9392   -8.4674 H       1  LIG1        0.0800
     32 H          15.9080  -35.7641   -8.2323 H       1  LIG1        0.0800
     33 H          18.5041  -41.2054  -15.1988 H       1  LIG1        0.0800
     34 H          18.8207  -40.4365  -13.6154 H       1  LIG1        0.0800
     35 H          19.1028  -42.1915  -13.8337 H       1  LIG1        0.0800
     36 H          13.2919  -42.7156  -11.6739 H       1  LIG1        0.1800
     37 H          13.6442  -34.6640  -12.4267 H       1  LIG1        0.1500
     38 H          14.1861  -32.2634  -12.5315 H       1  LIG1        0.1500
     39 H          17.0586  -32.7676   -9.4394 H       1  LIG1        0.1500
@<TRIPOS>BOND
     1     1     2   ar
     2     1     6   ar
     3     1    26    1
     4     2     3   ar
     5     2    27    1
     6     3     4   ar
     7     3    28    1
     8     4     5   ar
     9     4    11    1
    10     5     6   ar
    11     5    29    1
    12     6     7    1
    13     7     8   am
    14     7    30    1
    15     8     9    2
    16     8    10    1
    17    10    18    1
    18    10    31    1
    19    10    32    1
    20    11    12   ar
    21    11    15   ar
    22    12    13   ar
    23    12    17    1
    24    13    14   ar
    25    14    15   ar
    26    15    16    1
    27    16    33    1
    28    16    34    1
    29    16    35    1
    30    17    36    1
    31    18    19   ar
    32    18    23   ar
    33    19    20   ar
    34    19    24    1
    35    20    21   ar
    36    20    37    1
    37    21    22   ar
    38    21    38    1
    39    22    23   ar
    40    22    25    1
    41    23    39    1
@<TRIPOS>SUBSTRUCTURE
     1 LIG1        1 TEMP              0 ****  ****    0 ROOT


##########                                Name:    Z1551029475.****
##########                        Cluster_Size:                   3
##########                          Grid_Score:          -43.195820
##########                     Grid_vdw_energy:          -34.516178
##########                      Grid_es_energy:           -8.679641
##########           Internal_energy_repulsive:            6.051263

@<TRIPOS>MOLECULE
Z1551029475.****
 39 41 1 0 0
SMALL
USER_CHARGES
****

@<TRIPOS>ATOM
      1 C          16.4496  -39.7376  -10.7122 C.ar    1  LIG1       -0.1500
      2 C          16.8815  -40.8615  -11.4155 C.ar    1  LIG1       -0.1500
      3 C          18.2446  -41.1163  -11.5659 C.ar    1  LIG1       -0.1500
      4 C          19.1685  -40.2279  -11.0062 C.ar    1  LIG1       -0.0230
      5 C          18.7560  -39.0828  -10.3307 C.ar    1  LIG1       -0.1500
      6 C          17.3919  -38.8632  -10.1680 C.ar    1  LIG1        0.1170
      7 N          16.9516  -37.7302   -9.4611 N.am    1  LIG1       -0.5470
      8 C          17.2401  -36.4286   -9.7486 C.2     1  LIG1        0.5690
      9 O          17.9402  -36.2619  -10.7217 O.2     1  LIG1       -0.5700
     10 C          16.7158  -35.2630   -8.9226 C.3     1  LIG1        0.0440
     11 N          20.5768  -40.5051  -11.0914 N.ar    1  LIG1        0.3260
     12 C          21.5323  -39.7110  -11.6179 C.ar    1  LIG1        0.2430
     13 N          22.7011  -40.2526  -11.4385 N.ar    1  LIG1       -0.3380
     14 N          22.4933  -41.4480  -10.7798 N.ar    1  LIG1       -0.3380
     15 C          21.2264  -41.5804  -10.5859 C.ar    1  LIG1        0.0060
     16 C          20.5409  -42.7479   -9.9077 C.3     1  LIG1       -0.0600
     17 S          21.1853  -38.1986  -12.4142 S.3     1  LIG1       -0.2360
     18 C          16.0714  -34.2369   -9.8533 C.ar    1  LIG1       -0.1430
     19 C          15.0362  -34.5994  -10.7188 C.ar    1  LIG1        0.1900
     20 C          14.3876  -33.6815  -11.5347 C.ar    1  LIG1       -0.1500
     21 C          14.7956  -32.3526  -11.5073 C.ar    1  LIG1       -0.1500
     22 C          15.8480  -31.9640  -10.6780 C.ar    1  LIG1        0.1110
     23 C          16.4867  -32.9011   -9.8617 C.ar    1  LIG1       -0.1500
     24 F          14.6245  -35.8880  -10.7726 F       1  LIG1       -0.1900
     25 BR         16.4061  -30.1581  -10.6504 Br      1  LIG1       -0.1110
     26 H          15.4144  -39.5459  -10.5896 H       1  LIG1        0.1500
     27 H          16.1701  -41.5267  -11.8356 H       1  LIG1        0.1500
     28 H          18.5723  -41.9728  -12.0986 H       1  LIG1        0.1500
     29 H          19.4615  -38.3905   -9.9517 H       1  LIG1        0.1500
     30 H          16.3410  -37.8587   -8.6428 H       1  LIG1        0.3700
     31 H          17.5536  -34.8266   -8.3984 H       1  LIG1        0.0800
     32 H          15.9565  -35.6402   -8.2517 H       1  LIG1        0.0800
     33 H          21.2781  -43.2581   -9.2879 H       1  LIG1        0.0800
     34 H          19.7192  -42.3816   -9.2938 H       1  LIG1        0.0800
     35 H          20.1711  -43.4192  -10.6818 H       1  LIG1        0.0800
     36 H          22.5013  -37.9246  -12.7277 H       1  LIG1        0.1800
     37 H          13.5924  -33.9917  -12.1637 H       1  LIG1        0.1500
     38 H          14.3069  -31.6347  -12.1172 H       1  LIG1        0.1500
     39 H          17.2867  -32.5854   -9.2392 H       1  LIG1        0.1500
@<TRIPOS>BOND
     1     1     2   ar
     2     1     6   ar
     3     1    26    1
     4     2     3   ar
     5     2    27    1
     6     3     4   ar
     7     3    28    1
     8     4     5   ar
     9     4    11    1
    10     5     6   ar
    11     5    29    1
    12     6     7    1
    13     7     8   am
    14     7    30    1
    15     8     9    2
    16     8    10    1
    17    10    18    1
    18    10    31    1
    19    10    32    1
    20    11    12   ar
    21    11    15   ar
    22    12    13   ar
    23    12    17    1
    24    13    14   ar
    25    14    15   ar
    26    15    16    1
    27    16    33    1
    28    16    34    1
    29    16    35    1
    30    17    36    1
    31    18    19   ar
    32    18    23   ar
    33    19    20   ar
    34    19    24    1
    35    20    21   ar
    36    20    37    1
    37    21    22   ar
    38    21    38    1
    39    22    23   ar
    40    22    25    1
    41    23    39    1
@<TRIPOS>SUBSTRUCTURE
     1 LIG1        1 TEMP              0 ****  ****    0 ROOT


##########                                Name:    Z1551029475.****
##########                        Cluster_Size:                   1
##########                          Grid_Score:          -38.434433
##########                     Grid_vdw_energy:          -32.074341
##########                      Grid_es_energy:           -6.360093
##########           Internal_energy_repulsive:            3.915833

@<TRIPOS>MOLECULE
Z1551029475.****
 39 41 1 0 0
SMALL
USER_CHARGES
****

@<TRIPOS>ATOM
      1 C          17.7057  -36.5883   -8.9919 C.ar    1  LIG1       -0.1500
      2 C          17.5632  -35.2462   -9.3425 C.ar    1  LIG1       -0.1500
      3 C          17.4246  -34.8798  -10.6811 C.ar    1  LIG1       -0.1500
      4 C          17.4351  -35.8752  -11.6634 C.ar    1  LIG1       -0.0230
      5 C          17.6109  -37.2165  -11.3350 C.ar    1  LIG1       -0.1500
      6 C          17.7187  -37.5623   -9.9918 C.ar    1  LIG1        0.1170
      7 N          17.8643  -38.9142   -9.6335 N.am    1  LIG1       -0.5470
      8 C          18.9923  -39.6713   -9.7543 C.2     1  LIG1        0.5690
      9 O          19.9520  -39.0916  -10.2101 O.2     1  LIG1       -0.5700
     10 C          19.0558  -41.1336   -9.3379 C.3     1  LIG1        0.0440
     11 N          17.2276  -35.5276  -13.0432 N.ar    1  LIG1        0.3260
     12 C          18.0470  -35.7936  -14.0817 C.ar    1  LIG1        0.2430
     13 N          17.4892  -35.4069  -15.1912 N.ar    1  LIG1       -0.3380
     14 N          16.2662  -34.8603  -14.8569 N.ar    1  LIG1       -0.3380
     15 C          16.1316  -34.9390  -13.5779 C.ar    1  LIG1        0.0060
     16 C          14.9471  -34.4519  -12.7700 C.3     1  LIG1       -0.0600
     17 S          19.6125  -36.5400  -13.8963 S.3     1  LIG1       -0.2360
     18 C          18.7610  -42.0149  -10.5507 C.ar    1  LIG1       -0.1430
     19 C          19.7891  -42.4554  -11.3880 C.ar    1  LIG1        0.1900
     20 C          19.5654  -43.3055  -12.4633 C.ar    1  LIG1       -0.1500
     21 C          18.2659  -43.7198  -12.7329 C.ar    1  LIG1       -0.1500
     22 C          17.2124  -43.2721  -11.9353 C.ar    1  LIG1        0.1110
     23 C          17.4572  -42.4194  -10.8558 C.ar    1  LIG1       -0.1500
     24 F          21.0628  -42.0605  -11.1543 F       1  LIG1       -0.1900
     25 BR         15.4457  -43.8301  -12.3107 Br      1  LIG1       -0.1110
     26 H          17.8031  -36.8702   -7.9748 H       1  LIG1        0.1500
     27 H          17.5578  -34.5013   -8.5874 H       1  LIG1        0.1500
     28 H          17.3136  -33.8590  -10.9467 H       1  LIG1        0.1500
     29 H          17.6658  -37.9587  -12.0879 H       1  LIG1        0.1500
     30 H          17.0604  -39.4125   -9.2281 H       1  LIG1        0.3700
     31 H          18.3157  -41.2896   -8.5664 H       1  LIG1        0.0800
     32 H          20.0605  -41.3439   -8.9986 H       1  LIG1        0.0800
     33 H          14.0899  -34.3780  -13.4391 H       1  LIG1        0.0800
     34 H          14.7395  -35.1568  -11.9660 H       1  LIG1        0.0800
     35 H          15.1940  -33.4711  -12.3653 H       1  LIG1        0.0800
     36 H          19.2046  -37.4320  -12.9251 H       1  LIG1        0.1800
     37 H          20.3749  -43.6341  -13.0640 H       1  LIG1        0.1500
     38 H          18.0758  -44.3759  -13.5450 H       1  LIG1        0.1500
     39 H          16.6413  -42.0886  -10.2623 H       1  LIG1        0.1500
@<TRIPOS>BOND
     1     1     2   ar
     2     1     6   ar
     3     1    26    1
     4     2     3   ar
     5     2    27    1
     6     3     4   ar
     7     3    28    1
     8     4     5   ar
     9     4    11    1
    10     5     6   ar
    11     5    29    1
    12     6     7    1
    13     7     8   am
    14     7    30    1
    15     8     9    2
    16     8    10    1
    17    10    18    1
    18    10    31    1
    19    10    32    1
    20    11    12   ar
    21    11    15   ar
    22    12    13   ar
    23    12    17    1
    24    13    14   ar
    25    14    15   ar
    26    15    16    1
    27    16    33    1
    28    16    34    1
    29    16    35    1
    30    17    36    1
    31    18    19   ar
    32    18    23   ar
    33    19    20   ar
    34    19    24    1
    35    20    21   ar
    36    20    37    1
    37    21    22   ar
    38    21    38    1
    39    22    23   ar
    40    22    25    1
    41    23    39    1
@<TRIPOS>SUBSTRUCTURE
     1 LIG1        1 TEMP              0 ****  ****    0 ROOT


##########                                Name:      Z52832973.****
##########                        Cluster_Size:                   1
##########                          Grid_Score:          -41.166988
##########                     Grid_vdw_energy:          -33.719891
##########                      Grid_es_energy:           -7.447096
##########           Internal_energy_repulsive:            6.686778

@<TRIPOS>MOLECULE
Z52832973.****
 37 38 1 0 0
SMALL
USER_CHARGES
****

@<TRIPOS>ATOM
      1 C          15.5409  -31.4266  -11.7150 C.ar    1  LIG1       -0.1500
      2 C          16.3543  -31.2742  -10.5922 C.ar    1  LIG1       -0.1440
      3 C          16.6144  -32.3721   -9.7764 C.ar    1  LIG1       -0.1500
      4 C          16.0644  -33.6176  -10.0845 C.ar    1  LIG1        0.1000
      5 C          15.2657  -33.7729  -11.2215 C.ar    1  LIG1       -0.1500
      6 C          15.0036  -32.6730  -12.0287 C.ar    1  LIG1       -0.1500
      7 C          16.9351  -29.9178  -10.2555 C.3     1  LIG1       -0.0960
      8 N          16.3486  -34.6872   -9.2281 N.pl3   1  LIG1       -0.8690
      9 C          15.4490  -35.8831   -9.2652 C.3     1  LIG1        0.2700
     10 C          16.0520  -36.9299  -10.1997 C.2     1  LIG1        0.5690
     11 N          15.8402  -38.2415   -9.8583 N.am    1  LIG1       -0.5470
     12 C          16.2708  -39.4307  -10.5222 C.ar    1  LIG1        0.1170
     13 C          15.3831  -40.0302  -11.4303 C.ar    1  LIG1        0.1770
     14 C          15.7639  -41.1931  -12.0953 C.ar    1  LIG1       -0.1500
     15 C          17.0217  -41.7494  -11.8697 C.ar    1  LIG1       -0.1500
     16 C          17.9253  -41.1473  -10.9826 C.ar    1  LIG1       -0.1430
     17 C          17.5367  -39.9814  -10.3090 C.ar    1  LIG1       -0.1500
     18 CL         13.8150  -39.3495  -11.7384 Cl      1  LIG1       -0.1770
     19 O          16.6991  -36.6327  -11.1834 O.2     1  LIG1       -0.5700
     20 C          19.3115  -41.7599  -10.7256 C.3     1  LIG1        1.1630
     21 F          19.2771  -43.0957  -10.9010 F       1  LIG1       -0.3400
     22 F          20.2163  -41.2412  -11.5761 F       1  LIG1       -0.3400
     23 F          19.6886  -41.4969   -9.4668 F       1  LIG1       -0.3400
     24 H          15.3325  -30.5933  -12.3360 H       1  LIG1        0.1500
     25 H          17.2285  -32.2678   -8.9208 H       1  LIG1        0.1500
     26 H          14.8700  -34.7187  -11.4778 H       1  LIG1        0.1500
     27 H          14.3953  -32.7812  -12.8902 H       1  LIG1        0.1500
     28 H          17.8595  -30.0567   -9.6953 H       1  LIG1        0.0800
     29 H          17.1412  -29.3842  -11.1831 H       1  LIG1        0.0800
     30 H          16.2023  -29.3764   -9.6568 H       1  LIG1        0.0800
     31 H          16.5041  -34.3622   -8.2581 H       1  LIG1        0.4000
     32 H          14.4951  -35.6069   -9.6909 H       1  LIG1        0.0800
     33 H          15.3601  -36.3150   -8.2771 H       1  LIG1        0.0800
     34 H          15.3333  -38.3587   -8.9639 H       1  LIG1        0.3700
     35 H          15.0900  -41.6504  -12.7727 H       1  LIG1        0.1500
     36 H          17.2883  -42.6396  -12.3826 H       1  LIG1        0.1500
     37 H          18.2104  -39.5128   -9.6391 H       1  LIG1        0.1500
@<TRIPOS>BOND
     1     1     2   ar
     2     1     6   ar
     3     1    24    1
     4     2     3   ar
     5     2     7    1
     6     3     4   ar
     7     3    25    1
     8     4     5   ar
     9     4     8    1
    10     5     6   ar
    11     5    26    1
    12     6    27    1
    13     7    28    1
    14     7    29    1
    15     7    30    1
    16     8     9    1
    17     8    31    1
    18     9    10    1
    19     9    32    1
    20     9    33    1
    21    10    11   am
    22    10    19    2
    23    11    12    1
    24    11    34    1
    25    12    13   ar
    26    12    17   ar
    27    13    14   ar
    28    13    18    1
    29    14    15   ar
    30    14    35    1
    31    15    16   ar
    32    15    36    1
    33    16    17   ar
    34    16    20    1
    35    17    37    1
    36    20    21    1
    37    20    22    1
    38    20    23    1
@<TRIPOS>SUBSTRUCTURE
     1 LIG1        1 TEMP              0 ****  ****    0 ROOT


##########                                Name:      Z52832973.****
##########                        Cluster_Size:                   7
##########                          Grid_Score:          -41.059734
##########                     Grid_vdw_energy:          -34.803951
##########                      Grid_es_energy:           -6.255783
##########           Internal_energy_repulsive:            8.081689

@<TRIPOS>MOLECULE
Z52832973.****
 37 38 1 0 0
SMALL
USER_CHARGES
****

@<TRIPOS>ATOM
      1 C          15.5720  -31.3523  -11.6307 C.ar    1  LIG1       -0.1500
      2 C          16.3595  -31.3080  -10.4803 C.ar    1  LIG1       -0.1440
      3 C          16.6030  -32.4789   -9.7672 C.ar    1  LIG1       -0.1500
      4 C          16.0621  -33.6890  -10.2051 C.ar    1  LIG1        0.1000
      5 C          15.2896  -33.7348  -11.3696 C.ar    1  LIG1       -0.1500
      6 C          15.0440  -32.5628  -12.0739 C.ar    1  LIG1       -0.1500
      7 C          16.9302  -29.9903  -10.0027 C.3     1  LIG1       -0.0960
      8 N          16.3287  -34.8356   -9.4484 N.pl3   1  LIG1       -0.8690
      9 C          15.1891  -35.7492   -9.1207 C.3     1  LIG1        0.2700
     10 C          15.2681  -36.9837  -10.0164 C.2     1  LIG1        0.5690
     11 N          16.2812  -37.8673   -9.7435 N.am    1  LIG1       -0.5470
     12 C          16.6113  -39.0953  -10.3942 C.ar    1  LIG1        0.1170
     13 C          17.8918  -39.6283  -10.1736 C.ar    1  LIG1        0.1770
     14 C          18.2536  -40.8219  -10.7929 C.ar    1  LIG1       -0.1500
     15 C          17.3465  -41.4880  -11.6150 C.ar    1  LIG1       -0.1500
     16 C          16.0576  -40.9775  -11.8247 C.ar    1  LIG1       -0.1430
     17 C          15.6985  -39.7722  -11.2064 C.ar    1  LIG1       -0.1500
     18 CL         19.0360  -38.8241   -9.1435 Cl      1  LIG1       -0.1770
     19 O          14.4951  -37.1768  -10.9330 O.2     1  LIG1       -0.5700
     20 C          15.0551  -41.7050  -12.7352 C.3     1  LIG1        1.1630
     21 F          15.5334  -42.9129  -13.0935 F       1  LIG1       -0.3400
     22 F          13.8853  -41.8824  -12.0940 F       1  LIG1       -0.3400
     23 F          14.8460  -40.9757  -13.8400 F       1  LIG1       -0.3400
     24 H          15.3762  -30.4635  -12.1740 H       1  LIG1        0.1500
     25 H          17.1974  -32.4570   -8.8919 H       1  LIG1        0.1500
     26 H          14.9014  -34.6517  -11.7238 H       1  LIG1        0.1500
     27 H          14.4555  -32.5881  -12.9554 H       1  LIG1        0.1500
     28 H          17.8420  -30.1824   -9.4375 H       1  LIG1        0.0800
     29 H          17.1564  -29.3707  -10.8704 H       1  LIG1        0.0800
     30 H          16.1832  -29.5081   -9.3719 H       1  LIG1        0.0800
     31 H          16.8855  -34.6100   -8.6060 H       1  LIG1        0.4000
     32 H          14.2537  -35.2614   -9.3546 H       1  LIG1        0.0800
     33 H          15.2508  -36.0688   -8.0888 H       1  LIG1        0.0800
     34 H          16.9090  -37.5536   -8.9832 H       1  LIG1        0.3700
     35 H          19.2231  -41.2184  -10.6340 H       1  LIG1        0.1500
     36 H          17.6460  -42.3929  -12.0819 H       1  LIG1        0.1500
     37 H          14.7267  -39.3766  -11.3520 H       1  LIG1        0.1500
@<TRIPOS>BOND
     1     1     2   ar
     2     1     6   ar
     3     1    24    1
     4     2     3   ar
     5     2     7    1
     6     3     4   ar
     7     3    25    1
     8     4     5   ar
     9     4     8    1
    10     5     6   ar
    11     5    26    1
    12     6    27    1
    13     7    28    1
    14     7    29    1
    15     7    30    1
    16     8     9    1
    17     8    31    1
    18     9    10    1
    19     9    32    1
    20     9    33    1
    21    10    11   am
    22    10    19    2
    23    11    12    1
    24    11    34    1
    25    12    13   ar
    26    12    17   ar
    27    13    14   ar
    28    13    18    1
    29    14    15   ar
    30    14    35    1
    31    15    16   ar
    32    15    36    1
    33    16    17   ar
    34    16    20    1
    35    17    37    1
    36    20    21    1
    37    20    22    1
    38    20    23    1
@<TRIPOS>SUBSTRUCTURE
     1 LIG1        1 TEMP              0 ****  ****    0 ROOT


##########                                Name:      Z52832973.****
##########                        Cluster_Size:                   1
##########                          Grid_Score:          -40.380264
##########                     Grid_vdw_energy:          -33.258041
##########                      Grid_es_energy:           -7.122225
##########           Internal_energy_repulsive:            4.928633

@<TRIPOS>MOLECULE
Z52832973.****
 37 38 1 0 0
SMALL
USER_CHARGES
****

@<TRIPOS>ATOM
      1 C          15.9854  -33.5608  -12.5342 C.ar    1  LIG1       -0.1500
      2 C          17.0354  -34.4769  -12.5980 C.ar    1  LIG1       -0.1440
      3 C          17.5464  -35.0213  -11.4228 C.ar    1  LIG1       -0.1500
      4 C          17.0074  -34.6517  -10.1893 C.ar    1  LIG1        0.1000
      5 C          15.9418  -33.7487  -10.1285 C.ar    1  LIG1       -0.1500
      6 C          15.4397  -33.2031  -11.3034 C.ar    1  LIG1       -0.1500
      7 C          17.6251  -34.8616  -13.9376 C.3     1  LIG1       -0.0960
      8 N          17.5623  -35.2202   -9.0372 N.pl3   1  LIG1       -0.8690
      9 C          16.8137  -36.3267   -8.3618 C.3     1  LIG1        0.2700
     10 C          16.7482  -37.5287   -9.3018 C.2     1  LIG1        0.5690
     11 N          15.5320  -37.7760   -9.8860 N.am    1  LIG1       -0.5470
     12 C          15.1594  -38.8106  -10.7978 C.ar    1  LIG1        0.1170
     13 C          14.3393  -38.4612  -11.8830 C.ar    1  LIG1        0.1770
     14 C          13.9507  -39.4417  -12.7924 C.ar    1  LIG1       -0.1500
     15 C          14.3835  -40.7568  -12.6325 C.ar    1  LIG1       -0.1500
     16 C          15.2210  -41.1132  -11.5659 C.ar    1  LIG1       -0.1430
     17 C          15.6044  -40.1261  -10.6479 C.ar    1  LIG1       -0.1500
     18 CL         13.7970  -36.8270  -12.1116 Cl      1  LIG1       -0.1770
     19 O          17.7060  -38.2439   -9.5159 O.2     1  LIG1       -0.5700
     20 C          15.6965  -42.5633  -11.3814 C.3     1  LIG1        1.1630
     21 F          15.6101  -43.2398  -12.5438 F       1  LIG1       -0.3400
     22 F          16.9772  -42.5860  -10.9688 F       1  LIG1       -0.3400
     23 F          14.9281  -43.1714  -10.4671 F       1  LIG1       -0.3400
     24 H          15.5968  -33.1367  -13.4244 H       1  LIG1        0.1500
     25 H          18.3442  -35.7158  -11.4590 H       1  LIG1        0.1500
     26 H          15.5089  -33.4866   -9.2007 H       1  LIG1        0.1500
     27 H          14.6348  -32.5142  -11.2658 H       1  LIG1        0.1500
     28 H          18.0524  -35.8614  -13.8632 H       1  LIG1        0.0800
     29 H          16.8326  -34.8527  -14.6856 H       1  LIG1        0.0800
     30 H          18.3966  -34.1333  -14.1881 H       1  LIG1        0.0800
     31 H          17.8523  -34.4931   -8.3605 H       1  LIG1        0.4000
     32 H          15.7926  -36.0201   -8.1863 H       1  LIG1        0.0800
     33 H          17.3251  -36.6259   -7.4564 H       1  LIG1        0.0800
     34 H          14.7837  -37.1356   -9.5691 H       1  LIG1        0.3700
     35 H          13.3240  -39.1796  -13.6053 H       1  LIG1        0.1500
     36 H          14.0698  -41.4890  -13.3340 H       1  LIG1        0.1500
     37 H          16.2404  -40.3795   -9.8396 H       1  LIG1        0.1500
@<TRIPOS>BOND
     1     1     2   ar
     2     1     6   ar
     3     1    24    1
     4     2     3   ar
     5     2     7    1
     6     3     4   ar
     7     3    25    1
     8     4     5   ar
     9     4     8    1
    10     5     6   ar
    11     5    26    1
    12     6    27    1
    13     7    28    1
    14     7    29    1
    15     7    30    1
    16     8     9    1
    17     8    31    1
    18     9    10    1
    19     9    32    1
    20     9    33    1
    21    10    11   am
    22    10    19    2
    23    11    12    1
    24    11    34    1
    25    12    13   ar
    26    12    17   ar
    27    13    14   ar
    28    13    18    1
    29    14    15   ar
    30    14    35    1
    31    15    16   ar
    32    15    36    1
    33    16    17   ar
    34    16    20    1
    35    17    37    1
    36    20    21    1
    37    20    22    1
    38    20    23    1
@<TRIPOS>SUBSTRUCTURE
     1 LIG1        1 TEMP              0 ****  ****    0 ROOT


##########                                Name:      Z52832973.****
##########                        Cluster_Size:                   1
##########                          Grid_Score:          -39.094269
##########                     Grid_vdw_energy:          -30.593243
##########                      Grid_es_energy:           -8.501028
##########           Internal_energy_repulsive:            5.288317

@<TRIPOS>MOLECULE
Z52832973.****
 37 38 1 0 0
SMALL
USER_CHARGES
****

@<TRIPOS>ATOM
      1 C          14.5682  -34.8709  -10.7937 C.ar    1  LIG1       -0.1500
      2 C          15.5524  -34.9500  -11.7789 C.ar    1  LIG1       -0.1440
      3 C          16.8666  -35.2353  -11.4179 C.ar    1  LIG1       -0.1500
      4 C          17.1935  -35.4427  -10.0767 C.ar    1  LIG1        0.1000
      5 C          16.2020  -35.3828   -9.0927 C.ar    1  LIG1       -0.1500
      6 C          14.8934  -35.0912   -9.4571 C.ar    1  LIG1       -0.1500
      7 C          15.1940  -34.7091  -13.2293 C.3     1  LIG1       -0.0960
      8 N          18.5298  -35.7173   -9.7649 N.pl3   1  LIG1       -0.8690
      9 C          18.8294  -36.9239   -8.9311 C.3     1  LIG1        0.2700
     10 C          18.6543  -38.1761   -9.7877 C.2     1  LIG1        0.5690
     11 N          17.5604  -38.9548   -9.5070 N.am    1  LIG1       -0.5470
     12 C          17.1315  -40.1696  -10.1242 C.ar    1  LIG1        0.1170
     13 C          17.9046  -41.3216   -9.9066 C.ar    1  LIG1        0.1770
     14 C          17.5221  -42.5250  -10.4939 C.ar    1  LIG1       -0.1500
     15 C          16.3736  -42.5869  -11.2809 C.ar    1  LIG1       -0.1500
     16 C          15.5811  -41.4486  -11.4867 C.ar    1  LIG1       -0.1430
     17 C          15.9725  -40.2371  -10.9008 C.ar    1  LIG1       -0.1500
     18 CL         19.3332  -41.2735   -8.9197 Cl      1  LIG1       -0.1770
     19 O          19.4402  -38.4866  -10.6600 O.2     1  LIG1       -0.5700
     20 C          14.3166  -41.5099  -12.3586 C.3     1  LIG1        1.1630
     21 F          13.2126  -41.5507  -11.5867 F       1  LIG1       -0.3400
     22 F          14.2430  -40.4250  -13.1514 F       1  LIG1       -0.3400
     23 F          14.3541  -42.6113  -13.1212 F       1  LIG1       -0.3400
     24 H          13.5673  -34.6465  -11.0607 H       1  LIG1        0.1500
     25 H          17.6220  -35.2959  -12.1567 H       1  LIG1        0.1500
     26 H          16.4361  -35.5678   -8.0789 H       1  LIG1        0.1500
     27 H          14.1365  -35.0396   -8.7167 H       1  LIG1        0.1500
     28 H          15.8978  -35.2483  -13.8631 H       1  LIG1        0.0800
     29 H          14.1824  -35.0741  -13.4061 H       1  LIG1        0.0800
     30 H          15.2528  -33.6370  -13.4177 H       1  LIG1        0.0800
     31 H          19.0118  -34.8776   -9.4001 H       1  LIG1        0.4000
     32 H          18.1092  -36.9991   -8.1292 H       1  LIG1        0.0800
     33 H          19.8514  -36.8896   -8.5774 H       1  LIG1        0.0800
     34 H          17.0093  -38.6168   -8.6992 H       1  LIG1        0.3700
     35 H          18.1112  -43.3915  -10.3376 H       1  LIG1        0.1500
     36 H          16.1046  -43.5132  -11.7239 H       1  LIG1        0.1500
     37 H          15.3813  -39.3697  -11.0437 H       1  LIG1        0.1500
@<TRIPOS>BOND
     1     1     2   ar
     2     1     6   ar
     3     1    24    1
     4     2     3   ar
     5     2     7    1
     6     3     4   ar
     7     3    25    1
     8     4     5   ar
     9     4     8    1
    10     5     6   ar
    11     5    26    1
    12     6    27    1
    13     7    28    1
    14     7    29    1
    15     7    30    1
    16     8     9    1
    17     8    31    1
    18     9    10    1
    19     9    32    1
    20     9    33    1
    21    10    11   am
    22    10    19    2
    23    11    12    1
    24    11    34    1
    25    12    13   ar
    26    12    17   ar
    27    13    14   ar
    28    13    18    1
    29    14    15   ar
    30    14    35    1
    31    15    16   ar
    32    15    36    1
    33    16    17   ar
    34    16    20    1
    35    17    37    1
    36    20    21    1
    37    20    22    1
    38    20    23    1
@<TRIPOS>SUBSTRUCTURE
     1 LIG1        1 TEMP              0 ****  ****    0 ROOT


##########                                Name:             G11.sdf
##########                        Cluster_Size:                   2
##########                          Grid_Score:          -42.191483
##########                     Grid_vdw_energy:          -36.968956
##########                      Grid_es_energy:           -5.222528
##########           Internal_energy_repulsive:           77.538269

@<TRIPOS>MOLECULE
G11.sdf
 83 85 1 0 0
SMALL
USER_CHARGES
****

@<TRIPOS>ATOM
      1 C          15.9132  -38.0134  -15.3622 C.ar    1  LIG1       -0.1500
      2 C          15.6315  -38.3910  -14.0527 C.ar    1  LIG1       -0.1500
      3 C          15.7474  -37.4682  -13.0168 C.ar    1  LIG1       -0.1500
      4 C          16.1453  -36.1545  -13.2910 C.ar    1  LIG1        0.1000
      5 C          16.4408  -35.7737  -14.6042 C.ar    1  LIG1       -0.1500
      6 C          16.3198  -36.7043  -15.6327 C.ar    1  LIG1        0.1770
      7 CL         16.6681  -36.2368  -17.2644 Cl      1  LIG1       -0.1770
      8 N          16.2433  -35.2378  -12.2161 N.pl3   1  LIG1       -0.8380
      9 C          17.6100  -34.9885  -11.6873 C.3     1  LIG1        0.3890
     10 C          15.1500  -35.1864  -11.2220 C.3     1  LIG1        0.1290
     11 C          18.1125  -36.2922  -11.0907 C.ar    1  LIG1       -0.1400
     12 C          17.7546  -36.8574   -9.8941 C.ar    1  LIG1       -0.1500
     13 C          18.3911  -38.0802   -9.6503 C.ar    1  LIG1       -0.1500
     14 C          19.2423  -38.4643  -10.6648 C.ar    1  LIG1       -0.0450
     15 S          19.2628  -37.2729  -11.9258 S.2     1  LIG1       -0.0800
     16 C          20.0354  -39.6756  -10.7841 C.2     1  LIG1        0.7150
     17 N          20.3810  -40.1205  -12.0297 N.am    1  LIG1       -0.7300
     18 O          20.4614  -40.3212   -9.8307 O.2     1  LIG1       -0.5700
     19 C          21.1878  -41.3490  -12.2052 C.3     1  LIG1        0.2810
     20 C          22.6594  -41.0297  -11.8505 C.2     1  LIG1        0.5690
     21 C          21.0209  -41.7567  -13.6902 C.3     1  LIG1       -0.1600
     22 C          19.5309  -42.0254  -14.0079 C.3     1  LIG1       -0.0800
     23 C          19.3011  -42.4370  -15.4779 C.3     1  LIG1       -0.1600
     24 C          17.8275  -42.7792  -15.7422 C.3     1  LIG1       -0.1600
     25 C          17.3411  -43.8878  -14.8006 C.3     1  LIG1       -0.1600
     26 C          17.5591  -43.4863  -13.3365 C.3     1  LIG1       -0.1600
     27 C          19.0340  -43.1469  -13.0760 C.3     1  LIG1       -0.1600
     28 O          23.1889  -41.3291  -10.7833 O.2     1  LIG1       -0.5700
     29 N          23.3935  -40.4828  -12.8216 N.am    1  LIG1       -0.7300
     30 C          24.8114  -40.0841  -12.7495 C.3     1  LIG1        0.2810
     31 C          25.0808  -38.6162  -12.2826 C.2     1  LIG1        0.5690
     32 C          25.5851  -41.1387  -11.9125 C.3     1  LIG1       -0.0800
     33 C          25.5228  -42.5593  -12.5095 C.3     1  LIG1       -0.2400
     34 C          27.0627  -40.7534  -11.7099 C.3     1  LIG1       -0.2400
     35 N          25.1456  -37.6529  -13.2073 N.am    1  LIG1       -0.7300
     36 O          25.2332  -38.3420  -11.0947 O.2     1  LIG1       -0.5700
     37 C          25.3894  -36.2406  -12.9280 C.3     1  LIG1        0.1400
     38 C          26.8888  -35.9462  -12.9551 C.3     1  LIG1        0.1200
     39 O          27.5418  -36.7354  -11.9691 O.3     1  LIG1       -0.5600
     40 C          27.0687  -36.4722  -10.6580 C.3     1  LIG1        0.0400
     41 H          15.8250  -38.7089  -16.1548 H       1  LIG1        0.1500
     42 H          15.3297  -39.3853  -13.8419 H       1  LIG1        0.1500
     43 H          15.5509  -37.7618  -12.0202 H       1  LIG1        0.1500
     44 H          16.7353  -34.7862  -14.8338 H       1  LIG1        0.1500
     45 H          17.5581  -34.2430  -10.9057 H       1  LIG1        0.0800
     46 H          18.2882  -34.6964  -12.4769 H       1  LIG1        0.0800
     47 H          15.2766  -34.2877  -10.6334 H       1  LIG1        0.0800
     48 H          14.2151  -35.1500  -11.7654 H       1  LIG1        0.0800
     49 H          15.2069  -36.0701  -10.6005 H       1  LIG1        0.0800
     50 H          17.0617  -36.4146   -9.2255 H       1  LIG1        0.1500
     51 H          18.2272  -38.6501   -8.7724 H       1  LIG1        0.1500
     52 H          20.4004  -39.4299  -12.7869 H       1  LIG1        0.3700
     53 H          20.8226  -42.1257  -11.5492 H       1  LIG1        0.0800
     54 H          21.6114  -42.6531  -13.8848 H       1  LIG1        0.0800
     55 H          21.3831  -40.9532  -14.3336 H       1  LIG1        0.0800
     56 H          18.9384  -41.1329  -13.7956 H       1  LIG1        0.0800
     57 H          19.9158  -43.3080  -15.7135 H       1  LIG1        0.0800
     58 H          19.5839  -41.6262  -16.1492 H       1  LIG1        0.0800
     59 H          17.7115  -43.1072  -16.7764 H       1  LIG1        0.0800
     60 H          17.2180  -41.8859  -15.5935 H       1  LIG1        0.0800
     61 H          17.8890  -44.8084  -15.0100 H       1  LIG1        0.0800
     62 H          16.2789  -44.0710  -14.9729 H       1  LIG1        0.0800
     63 H          17.2558  -44.3088  -12.6860 H       1  LIG1        0.0800
     64 H          16.9415  -42.6172  -13.1031 H       1  LIG1        0.0800
     65 H          19.6372  -44.0449  -13.2281 H       1  LIG1        0.0800
     66 H          19.1405  -42.8314  -12.0365 H       1  LIG1        0.0800
     67 H          22.9361  -40.3377  -13.7160 H       1  LIG1        0.3700
     68 H          25.2067  -40.1292  -13.7650 H       1  LIG1        0.0800
     69 H          25.1222  -41.1739  -10.9237 H       1  LIG1        0.0800
     70 H          25.9970  -43.2669  -11.8287 H       1  LIG1        0.0800
     71 H          24.4839  -42.8655  -12.6437 H       1  LIG1        0.0800
     72 H          26.0328  -42.6058  -13.4714 H       1  LIG1        0.0800
     73 H          27.5380  -41.4625  -11.0299 H       1  LIG1        0.0800
     74 H          27.5992  -40.7674  -12.6597 H       1  LIG1        0.0800
     75 H          27.1309  -39.7561  -11.2752 H       1  LIG1        0.0800
     76 H          25.1164  -37.9659  -14.1718 H       1  LIG1        0.3700
     77 H          24.9922  -35.9699  -11.9473 H       1  LIG1        0.0800
     78 H          24.8975  -35.6266  -13.6836 H       1  LIG1        0.0800
     79 H          27.0462  -34.8863  -12.7465 H       1  LIG1        0.0800
     80 H          27.2717  -36.1793  -13.9500 H       1  LIG1        0.0800
     81 H          27.6050  -37.1054   -9.9507 H       1  LIG1        0.0800
     82 H          27.2448  -35.4271  -10.3952 H       1  LIG1        0.0800
     83 H          26.0020  -36.6922  -10.5881 H       1  LIG1        0.0800
@<TRIPOS>BOND
     1     1     2   ar
     2     1     6   ar
     3     1    41    1
     4     2     3   ar
     5     2    42    1
     6     3     4   ar
     7     3    43    1
     8     4     5   ar
     9     4     8    1
    10     5     6   ar
    11     5    44    1
    12     6     7    1
    13     8     9    1
    14     8    10    1
    15     9    11    1
    16     9    45    1
    17     9    46    1
    18    10    47    1
    19    10    48    1
    20    10    49    1
    21    11    12   ar
    22    11    15   ar
    23    12    13   ar
    24    12    50    1
    25    13    14   ar
    26    13    51    1
    27    14    15   ar
    28    14    16    1
    29    16    17   am
    30    16    18    2
    31    17    19    1
    32    17    52    1
    33    19    20    1
    34    19    21    1
    35    19    53    1
    36    20    28    2
    37    20    29   am
    38    21    22    1
    39    21    54    1
    40    21    55    1
    41    22    23    1
    42    22    27    1
    43    22    56    1
    44    23    24    1
    45    23    57    1
    46    23    58    1
    47    24    25    1
    48    24    59    1
    49    24    60    1
    50    25    26    1
    51    25    61    1
    52    25    62    1
    53    26    27    1
    54    26    63    1
    55    26    64    1
    56    27    65    1
    57    27    66    1
    58    29    30    1
    59    29    67    1
    60    30    31    1
    61    30    32    1
    62    30    68    1
    63    31    35   am
    64    31    36    2
    65    32    33    1
    66    32    34    1
    67    32    69    1
    68    33    70    1
    69    33    71    1
    70    33    72    1
    71    34    73    1
    72    34    74    1
    73    34    75    1
    74    35    37    1
    75    35    76    1
    76    37    38    1
    77    37    77    1
    78    37    78    1
    79    38    39    1
    80    38    79    1
    81    38    80    1
    82    39    40    1
    83    40    81    1
    84    40    82    1
    85    40    83    1
@<TRIPOS>SUBSTRUCTURE
     1 LIG1        1 TEMP              0 ****  ****    0 ROOT


##########                                Name:             G11.sdf
##########                        Cluster_Size:                   8
##########                          Grid_Score:          -38.693295
##########                     Grid_vdw_energy:          -34.680050
##########                      Grid_es_energy:           -4.013244
##########           Internal_energy_repulsive:           41.480377

@<TRIPOS>MOLECULE
G11.sdf
 83 85 1 0 0
SMALL
USER_CHARGES
****

@<TRIPOS>ATOM
      1 C          15.9132  -38.0134  -15.3622 C.ar    1  LIG1       -0.1500
      2 C          15.6315  -38.3910  -14.0527 C.ar    1  LIG1       -0.1500
      3 C          15.7474  -37.4682  -13.0168 C.ar    1  LIG1       -0.1500
      4 C          16.1453  -36.1545  -13.2910 C.ar    1  LIG1        0.1000
      5 C          16.4408  -35.7737  -14.6042 C.ar    1  LIG1       -0.1500
      6 C          16.3198  -36.7043  -15.6327 C.ar    1  LIG1        0.1770
      7 CL         16.6681  -36.2368  -17.2644 Cl      1  LIG1       -0.1770
      8 N          16.2433  -35.2378  -12.2161 N.pl3   1  LIG1       -0.8380
      9 C          17.6100  -34.9885  -11.6873 C.3     1  LIG1        0.3890
     10 C          15.1500  -35.1864  -11.2220 C.3     1  LIG1        0.1290
     11 C          18.1125  -36.2922  -11.0907 C.ar    1  LIG1       -0.1400
     12 C          17.7546  -36.8574   -9.8941 C.ar    1  LIG1       -0.1500
     13 C          18.3911  -38.0802   -9.6503 C.ar    1  LIG1       -0.1500
     14 C          19.2423  -38.4643  -10.6648 C.ar    1  LIG1       -0.0450
     15 S          19.2628  -37.2729  -11.9258 S.2     1  LIG1       -0.0800
     16 C          20.0354  -39.6756  -10.7841 C.2     1  LIG1        0.7150
     17 N          20.3810  -40.1205  -12.0297 N.am    1  LIG1       -0.7300
     18 O          20.4614  -40.3212   -9.8307 O.2     1  LIG1       -0.5700
     19 C          21.1878  -41.3490  -12.2052 C.3     1  LIG1        0.2810
     20 C          22.6594  -41.0297  -11.8505 C.2     1  LIG1        0.5690
     21 C          21.0209  -41.7567  -13.6902 C.3     1  LIG1       -0.1600
     22 C          19.5309  -42.0254  -14.0079 C.3     1  LIG1       -0.0800
     23 C          19.3011  -42.4370  -15.4779 C.3     1  LIG1       -0.1600
     24 C          17.8275  -42.7792  -15.7422 C.3     1  LIG1       -0.1600
     25 C          17.3411  -43.8878  -14.8006 C.3     1  LIG1       -0.1600
     26 C          17.5591  -43.4863  -13.3365 C.3     1  LIG1       -0.1600
     27 C          19.0340  -43.1469  -13.0760 C.3     1  LIG1       -0.1600
     28 O          23.1889  -41.3291  -10.7833 O.2     1  LIG1       -0.5700
     29 N          23.3935  -40.4828  -12.8216 N.am    1  LIG1       -0.7300
     30 C          24.8114  -40.0841  -12.7495 C.3     1  LIG1        0.2810
     31 C          25.6085  -40.1654  -14.0924 C.2     1  LIG1        0.5690
     32 C          24.9047  -38.6899  -12.0720 C.3     1  LIG1       -0.0800
     33 C          26.3501  -38.1688  -11.9405 C.3     1  LIG1       -0.2400
     34 C          24.0622  -37.6279  -12.8036 C.3     1  LIG1       -0.2400
     35 N          25.2485  -41.0836  -14.9950 N.am    1  LIG1       -0.7300
     36 O          26.5483  -39.4086  -14.3237 O.2     1  LIG1       -0.5700
     37 C          25.8935  -41.2812  -16.2899 C.3     1  LIG1        0.1400
     38 C          24.8838  -41.8061  -17.3102 C.3     1  LIG1        0.1200
     39 O          25.5317  -41.9912  -18.5620 O.3     1  LIG1       -0.5600
     40 C          26.0847  -40.7892  -19.0734 C.3     1  LIG1        0.0400
     41 H          15.8250  -38.7089  -16.1548 H       1  LIG1        0.1500
     42 H          15.3297  -39.3853  -13.8419 H       1  LIG1        0.1500
     43 H          15.5509  -37.7618  -12.0202 H       1  LIG1        0.1500
     44 H          16.7353  -34.7862  -14.8338 H       1  LIG1        0.1500
     45 H          17.5581  -34.2430  -10.9057 H       1  LIG1        0.0800
     46 H          18.2882  -34.6964  -12.4769 H       1  LIG1        0.0800
     47 H          15.2766  -34.2877  -10.6334 H       1  LIG1        0.0800
     48 H          14.2151  -35.1500  -11.7654 H       1  LIG1        0.0800
     49 H          15.2069  -36.0701  -10.6005 H       1  LIG1        0.0800
     50 H          17.0617  -36.4146   -9.2255 H       1  LIG1        0.1500
     51 H          18.2272  -38.6501   -8.7724 H       1  LIG1        0.1500
     52 H          20.4004  -39.4299  -12.7869 H       1  LIG1        0.3700
     53 H          20.8226  -42.1257  -11.5492 H       1  LIG1        0.0800
     54 H          21.6114  -42.6531  -13.8848 H       1  LIG1        0.0800
     55 H          21.3831  -40.9532  -14.3336 H       1  LIG1        0.0800
     56 H          18.9384  -41.1329  -13.7956 H       1  LIG1        0.0800
     57 H          19.9158  -43.3080  -15.7135 H       1  LIG1        0.0800
     58 H          19.5839  -41.6262  -16.1492 H       1  LIG1        0.0800
     59 H          17.7115  -43.1072  -16.7764 H       1  LIG1        0.0800
     60 H          17.2180  -41.8859  -15.5935 H       1  LIG1        0.0800
     61 H          17.8890  -44.8084  -15.0100 H       1  LIG1        0.0800
     62 H          16.2789  -44.0710  -14.9729 H       1  LIG1        0.0800
     63 H          17.2558  -44.3088  -12.6860 H       1  LIG1        0.0800
     64 H          16.9415  -42.6172  -13.1031 H       1  LIG1        0.0800
     65 H          19.6372  -44.0449  -13.2281 H       1  LIG1        0.0800
     66 H          19.1405  -42.8314  -12.0365 H       1  LIG1        0.0800
     67 H          22.9361  -40.3377  -13.7160 H       1  LIG1        0.3700
     68 H          25.3085  -40.7948  -12.0883 H       1  LIG1        0.0800
     69 H          24.4949  -38.7888  -11.0643 H       1  LIG1        0.0800
     70 H          26.3569  -37.2386  -11.3716 H       1  LIG1        0.0800
     71 H          26.9646  -38.8953  -11.4059 H       1  LIG1        0.0800
     72 H          26.7928  -37.9823  -12.9188 H       1  LIG1        0.0800
     73 H          24.0703  -36.6962  -12.2351 H       1  LIG1        0.0800
     74 H          24.4655  -37.4333  -13.7984 H       1  LIG1        0.0800
     75 H          23.0313  -37.9696  -12.8959 H       1  LIG1        0.0800
     76 H          24.5363  -41.7406  -14.6945 H       1  LIG1        0.3700
     77 H          26.7149  -41.9958  -16.2037 H       1  LIG1        0.0800
     78 H          26.2944  -40.3325  -16.6490 H       1  LIG1        0.0800
     79 H          24.0748  -41.0805  -17.4143 H       1  LIG1        0.0800
     80 H          24.4774  -42.7503  -16.9439 H       1  LIG1        0.0800
     81 H          26.5656  -40.9957  -20.0300 H       1  LIG1        0.0800
     82 H          25.2984  -40.0479  -19.2301 H       1  LIG1        0.0800
     83 H          26.8307  -40.3909  -18.3836 H       1  LIG1        0.0800
@<TRIPOS>BOND
     1     1     2   ar
     2     1     6   ar
     3     1    41    1
     4     2     3   ar
     5     2    42    1
     6     3     4   ar
     7     3    43    1
     8     4     5   ar
     9     4     8    1
    10     5     6   ar
    11     5    44    1
    12     6     7    1
    13     8     9    1
    14     8    10    1
    15     9    11    1
    16     9    45    1
    17     9    46    1
    18    10    47    1
    19    10    48    1
    20    10    49    1
    21    11    12   ar
    22    11    15   ar
    23    12    13   ar
    24    12    50    1
    25    13    14   ar
    26    13    51    1
    27    14    15   ar
    28    14    16    1
    29    16    17   am
    30    16    18    2
    31    17    19    1
    32    17    52    1
    33    19    20    1
    34    19    21    1
    35    19    53    1
    36    20    28    2
    37    20    29   am
    38    21    22    1
    39    21    54    1
    40    21    55    1
    41    22    23    1
    42    22    27    1
    43    22    56    1
    44    23    24    1
    45    23    57    1
    46    23    58    1
    47    24    25    1
    48    24    59    1
    49    24    60    1
    50    25    26    1
    51    25    61    1
    52    25    62    1
    53    26    27    1
    54    26    63    1
    55    26    64    1
    56    27    65    1
    57    27    66    1
    58    29    30    1
    59    29    67    1
    60    30    31    1
    61    30    32    1
    62    30    68    1
    63    31    35   am
    64    31    36    2
    65    32    33    1
    66    32    34    1
    67    32    69    1
    68    33    70    1
    69    33    71    1
    70    33    72    1
    71    34    73    1
    72    34    74    1
    73    34    75    1
    74    35    37    1
    75    35    76    1
    76    37    38    1
    77    37    77    1
    78    37    78    1
    79    38    39    1
    80    38    79    1
    81    38    80    1
    82    39    40    1
    83    40    81    1
    84    40    82    1
    85    40    83    1
@<TRIPOS>SUBSTRUCTURE
     1 LIG1        1 TEMP              0 ****  ****    0 ROOT


##########                                Name:    Z1203922336.****
##########                        Cluster_Size:                   3
##########                          Grid_Score:          -37.397724
##########                     Grid_vdw_energy:          -34.335697
##########                      Grid_es_energy:           -3.062026
##########           Internal_energy_repulsive:            8.406700

@<TRIPOS>MOLECULE
Z1203922336.****
 41 42 1 0 0
SMALL
USER_CHARGES
****

@<TRIPOS>ATOM
      1 C          16.3638  -42.5700  -10.6062 C.ar    1  LIG1       -0.1500
      2 C          17.6211  -42.2311  -10.1141 C.ar    1  LIG1       -0.1500
      3 C          17.9632  -40.8963   -9.8933 C.ar    1  LIG1       -0.1440
      4 C          17.0113  -39.9029  -10.1759 C.ar    1  LIG1        0.1170
      5 C          15.7466  -40.2331  -10.6645 C.ar    1  LIG1       -0.1500
      6 C          15.4283  -41.5709  -10.8803 C.ar    1  LIG1        0.1770
      7 CL         13.8636  -42.0040  -11.4848 Cl      1  LIG1       -0.1770
      8 C          19.3447  -40.5543   -9.3620 C.3     1  LIG1       -0.0960
      9 N          17.3578  -38.5511   -9.9183 N.am    1  LIG1       -0.5470
     10 C          17.0338  -37.4501  -10.6696 C.2     1  LIG1        0.5690
     11 C          17.5452  -36.1081  -10.1485 C.3     1  LIG1       -0.0190
     12 O          16.4226  -37.5698  -11.7120 O.2     1  LIG1       -0.5700
     13 C          16.3037  -35.2906   -9.6957 C.3     1  LIG1       -0.1600
     14 C          18.4841  -36.3680   -8.9436 C.3     1  LIG1       -0.2400
     15 C          16.1037  -34.0538  -10.5955 C.3     1  LIG1       -0.0800
     16 C          15.2288  -34.2799  -11.8322 C.3     1  LIG1       -0.1600
     17 C          14.7376  -32.8839  -12.2298 C.3     1  LIG1       -0.1600
     18 C          14.9181  -32.0015  -10.9891 C.3     1  LIG1       -0.1600
     19 C          15.3255  -32.9571   -9.8691 C.3     1  LIG1       -0.1600
     20 H          16.1078  -43.5837  -10.7742 H       1  LIG1        0.1500
     21 H          18.3220  -42.9992   -9.9091 H       1  LIG1        0.1500
     22 H          15.0264  -39.4855  -10.8670 H       1  LIG1        0.1500
     23 H          19.2363  -40.1320   -8.3636 H       1  LIG1        0.0800
     24 H          19.9509  -41.4595   -9.3175 H       1  LIG1        0.0800
     25 H          19.8082  -39.8384  -10.0426 H       1  LIG1        0.0800
     26 H          17.9679  -38.3809   -9.1144 H       1  LIG1        0.3700
     27 H          18.0847  -35.5988  -10.9339 H       1  LIG1        0.0800
     28 H          16.4252  -34.9780   -8.6566 H       1  LIG1        0.0800
     29 H          15.4149  -35.9221   -9.7568 H       1  LIG1        0.0800
     30 H          18.9439  -35.4323   -8.6286 H       1  LIG1        0.0800
     31 H          17.9096  -36.8081   -8.1273 H       1  LIG1        0.0800
     32 H          19.2613  -37.0643   -9.2615 H       1  LIG1        0.0800
     33 H          17.0669  -33.6393  -10.9007 H       1  LIG1        0.0800
     34 H          14.3707  -34.9015  -11.5711 H       1  LIG1        0.0800
     35 H          15.7927  -34.7396  -12.6456 H       1  LIG1        0.0800
     36 H          13.6881  -32.9228  -12.5291 H       1  LIG1        0.0800
     37 H          15.3389  -32.4905  -13.0508 H       1  LIG1        0.0800
     38 H          13.9971  -31.4720  -10.7380 H       1  LIG1        0.0800
     39 H          15.7206  -31.2842  -11.1675 H       1  LIG1        0.0800
     40 H          15.9422  -32.4561   -9.1210 H       1  LIG1        0.0800
     41 H          14.4320  -33.3752   -9.4004 H       1  LIG1        0.0800
@<TRIPOS>BOND
     1     1     2   ar
     2     1     6   ar
     3     1    20    1
     4     2     3   ar
     5     2    21    1
     6     3     4   ar
     7     3     8    1
     8     4     5   ar
     9     4     9    1
    10     5     6   ar
    11     5    22    1
    12     6     7    1
    13     8    23    1
    14     8    24    1
    15     8    25    1
    16     9    10   am
    17     9    26    1
    18    10    11    1
    19    10    12    2
    20    11    13    1
    21    11    14    1
    22    11    27    1
    23    13    15    1
    24    13    28    1
    25    13    29    1
    26    14    30    1
    27    14    31    1
    28    14    32    1
    29    15    16    1
    30    15    19    1
    31    15    33    1
    32    16    17    1
    33    16    34    1
    34    16    35    1
    35    17    18    1
    36    17    36    1
    37    17    37    1
    38    18    19    1
    39    18    38    1
    40    18    39    1
    41    19    40    1
    42    19    41    1
@<TRIPOS>SUBSTRUCTURE
     1 LIG1        1 TEMP              0 ****  ****    0 ROOT


##########                                Name:    Z1203922336.****
##########                        Cluster_Size:                   1
##########                          Grid_Score:          -36.665527
##########                     Grid_vdw_energy:          -33.952179
##########                      Grid_es_energy:           -2.713348
##########           Internal_energy_repulsive:            9.045853

@<TRIPOS>MOLECULE
Z1203922336.****
 41 42 1 0 0
SMALL
USER_CHARGES
****

@<TRIPOS>ATOM
      1 C          15.4096  -37.7738  -16.1532 C.ar    1  LIG1       -0.1500
      2 C          14.6368  -38.4376  -15.2044 C.ar    1  LIG1       -0.1500
      3 C          14.6302  -38.0200  -13.8730 C.ar    1  LIG1       -0.1440
      4 C          15.4178  -36.9146  -13.5113 C.ar    1  LIG1        0.1170
      5 C          16.1916  -36.2396  -14.4562 C.ar    1  LIG1       -0.1500
      6 C          16.1854  -36.6756  -15.7781 C.ar    1  LIG1        0.1770
      7 CL         17.1371  -35.8516  -16.9682 Cl      1  LIG1       -0.1770
      8 C          13.7830  -38.7669  -12.8570 C.3     1  LIG1       -0.0960
      9 N          15.3798  -36.4785  -12.1615 N.am    1  LIG1       -0.5470
     10 C          16.3921  -35.8899  -11.4471 C.2     1  LIG1        0.5690
     11 C          16.0663  -35.5214  -10.0007 C.3     1  LIG1       -0.0190
     12 O          17.4895  -35.7327  -11.9427 O.2     1  LIG1       -0.5700
     13 C          15.0657  -34.3335  -10.0460 C.3     1  LIG1       -0.1600
     14 C          15.4135  -36.7457   -9.3110 C.3     1  LIG1       -0.2400
     15 C          15.7589  -33.0517  -10.5520 C.3     1  LIG1       -0.0800
     16 C          14.8607  -32.0879  -11.3334 C.3     1  LIG1       -0.1600
     17 C          15.5645  -30.7298  -11.2425 C.3     1  LIG1       -0.1600
     18 C          16.5297  -30.8309  -10.0557 C.3     1  LIG1       -0.1600
     19 C          16.2133  -32.1690   -9.3901 C.3     1  LIG1       -0.1600
     20 H          15.4136  -38.0941  -17.1625 H       1  LIG1        0.1500
     21 H          14.0515  -39.2695  -15.5025 H       1  LIG1        0.1500
     22 H          16.7761  -35.4007  -14.1856 H       1  LIG1        0.1500
     23 H          12.9941  -38.1012  -12.5087 H       1  LIG1        0.0800
     24 H          13.3440  -39.6472  -13.3274 H       1  LIG1        0.0800
     25 H          14.4269  -39.0771  -12.0327 H       1  LIG1        0.0800
     26 H          14.5214  -36.6774  -11.6409 H       1  LIG1        0.3700
     27 H          16.9757  -35.2485   -9.4851 H       1  LIG1        0.0800
     28 H          14.6491  -34.1622   -9.0514 H       1  LIG1        0.0800
     29 H          14.2423  -34.5817  -10.7190 H       1  LIG1        0.0800
     30 H          15.2749  -36.5386   -8.2507 H       1  LIG1        0.0800
     31 H          14.4568  -36.9611   -9.7890 H       1  LIG1        0.0800
     32 H          16.0822  -37.5995   -9.4287 H       1  LIG1        0.0800
     33 H          16.6371  -33.2996  -11.1520 H       1  LIG1        0.0800
     34 H          13.8836  -32.0188  -10.8524 H       1  LIG1        0.0800
     35 H          14.7469  -32.3977  -12.3736 H       1  LIG1        0.0800
     36 H          14.8335  -29.9346  -11.0816 H       1  LIG1        0.0800
     37 H          16.1261  -30.5323  -12.1568 H       1  LIG1        0.0800
     38 H          16.3929  -30.0029   -9.3576 H       1  LIG1        0.0800
     39 H          17.5571  -30.8394  -10.4231 H       1  LIG1        0.0800
     40 H          17.0904  -32.5839   -8.8904 H       1  LIG1        0.0800
     41 H          15.3994  -32.0389   -8.6737 H       1  LIG1        0.0800
@<TRIPOS>BOND
     1     1     2   ar
     2     1     6   ar
     3     1    20    1
     4     2     3   ar
     5     2    21    1
     6     3     4   ar
     7     3     8    1
     8     4     5   ar
     9     4     9    1
    10     5     6   ar
    11     5    22    1
    12     6     7    1
    13     8    23    1
    14     8    24    1
    15     8    25    1
    16     9    10   am
    17     9    26    1
    18    10    11    1
    19    10    12    2
    20    11    13    1
    21    11    14    1
    22    11    27    1
    23    13    15    1
    24    13    28    1
    25    13    29    1
    26    14    30    1
    27    14    31    1
    28    14    32    1
    29    15    16    1
    30    15    19    1
    31    15    33    1
    32    16    17    1
    33    16    34    1
    34    16    35    1
    35    17    18    1
    36    17    36    1
    37    17    37    1
    38    18    19    1
    39    18    38    1
    40    18    39    1
    41    19    40    1
    42    19    41    1
@<TRIPOS>SUBSTRUCTURE
     1 LIG1        1 TEMP              0 ****  ****    0 ROOT


##########                                Name:    Z1203922336.****
##########                        Cluster_Size:                   2
##########                          Grid_Score:          -34.779671
##########                     Grid_vdw_energy:          -31.780378
##########                      Grid_es_energy:           -2.999293
##########           Internal_energy_repulsive:            5.161692

@<TRIPOS>MOLECULE
Z1203922336.****
 41 42 1 0 0
SMALL
USER_CHARGES
****

@<TRIPOS>ATOM
      1 C          17.5774  -42.0781  -10.2077 C.ar    1  LIG1       -0.1500
      2 C          16.3183  -42.2082  -10.7872 C.ar    1  LIG1       -0.1500
      3 C          15.5240  -41.0856  -11.0241 C.ar    1  LIG1       -0.1440
      4 C          16.0229  -39.8219  -10.6676 C.ar    1  LIG1        0.1170
      5 C          17.2858  -39.6809  -10.0911 C.ar    1  LIG1       -0.1500
      6 C          18.0595  -40.8148   -9.8610 C.ar    1  LIG1        0.1770
      7 CL         19.6311  -40.6630   -9.1479 Cl      1  LIG1       -0.1770
      8 C          14.1512  -41.2572  -11.6514 C.3     1  LIG1       -0.0960
      9 N          15.2206  -38.6839  -10.9413 N.am    1  LIG1       -0.5470
     10 C          15.2059  -37.9310  -12.0879 C.2     1  LIG1        0.5690
     11 C          14.2330  -36.7532  -12.1048 C.3     1  LIG1       -0.0190
     12 O          15.9707  -38.1753  -12.9989 O.2     1  LIG1       -0.5700
     13 C          15.0181  -35.5196  -12.6305 C.3     1  LIG1       -0.1600
     14 C          13.0615  -37.0901  -13.0611 C.3     1  LIG1       -0.2400
     15 C          14.7088  -34.2700  -11.7806 C.3     1  LIG1       -0.0800
     16 C          15.1937  -34.3305  -10.3289 C.3     1  LIG1       -0.1600
     17 C          15.2802  -32.8681   -9.8795 C.3     1  LIG1       -0.1600
     18 C          15.3276  -32.0319  -11.1636 C.3     1  LIG1       -0.1600
     19 C          15.4587  -33.0438  -12.3005 C.3     1  LIG1       -0.1600
     20 H          18.1770  -42.9321  -10.0279 H       1  LIG1        0.1500
     21 H          15.9643  -43.1729  -11.0467 H       1  LIG1        0.1500
     22 H          17.6655  -38.7281   -9.8327 H       1  LIG1        0.1500
     23 H          14.1610  -40.7928  -12.6368 H       1  LIG1        0.0800
     24 H          13.9249  -42.3198  -11.7450 H       1  LIG1        0.0800
     25 H          13.4136  -40.7835  -11.0018 H       1  LIG1        0.0800
     26 H          14.6273  -38.3485  -10.1779 H       1  LIG1        0.3700
     27 H          13.8573  -36.5823  -11.1063 H       1  LIG1        0.0800
     28 H          14.7577  -35.3323  -13.6742 H       1  LIG1        0.0800
     29 H          16.0891  -35.7267  -12.5814 H       1  LIG1        0.0800
     30 H          12.3039  -36.3098  -13.0019 H       1  LIG1        0.0800
     31 H          13.4420  -37.1801  -14.0796 H       1  LIG1        0.0800
     32 H          12.6277  -38.0404  -12.7468 H       1  LIG1        0.0800
     33 H          13.6401  -34.0459  -11.7993 H       1  LIG1        0.0800
     34 H          16.1882  -34.7780  -10.2882 H       1  LIG1        0.0800
     35 H          14.5028  -34.8910   -9.6969 H       1  LIG1        0.0800
     36 H          16.1786  -32.7090   -9.2793 H       1  LIG1        0.0800
     37 H          14.3977  -32.5979   -9.2977 H       1  LIG1        0.0800
     38 H          16.1697  -31.3372  -11.1572 H       1  LIG1        0.0800
     39 H          14.3929  -31.4796  -11.2718 H       1  LIG1        0.0800
     40 H          15.0176  -32.6660  -13.2245 H       1  LIG1        0.0800
     41 H          16.5123  -33.2841  -12.4581 H       1  LIG1        0.0800
@<TRIPOS>BOND
     1     1     2   ar
     2     1     6   ar
     3     1    20    1
     4     2     3   ar
     5     2    21    1
     6     3     4   ar
     7     3     8    1
     8     4     5   ar
     9     4     9    1
    10     5     6   ar
    11     5    22    1
    12     6     7    1
    13     8    23    1
    14     8    24    1
    15     8    25    1
    16     9    10   am
    17     9    26    1
    18    10    11    1
    19    10    12    2
    20    11    13    1
    21    11    14    1
    22    11    27    1
    23    13    15    1
    24    13    28    1
    25    13    29    1
    26    14    30    1
    27    14    31    1
    28    14    32    1
    29    15    16    1
    30    15    19    1
    31    15    33    1
    32    16    17    1
    33    16    34    1
    34    16    35    1
    35    17    18    1
    36    17    36    1
    37    17    37    1
    38    18    19    1
    39    18    38    1
    40    18    39    1
    41    19    40    1
    42    19    41    1
@<TRIPOS>SUBSTRUCTURE
     1 LIG1        1 TEMP              0 ****  ****    0 ROOT


##########                                Name:    Z1203922336.****
##########                        Cluster_Size:                   1
##########                          Grid_Score:          -34.460541
##########                     Grid_vdw_energy:          -30.467409
##########                      Grid_es_energy:           -3.993130
##########           Internal_energy_repulsive:           56.042362

@<TRIPOS>MOLECULE
Z1203922336.****
 41 42 1 0 0
SMALL
USER_CHARGES
****

@<TRIPOS>ATOM
      1 C          15.4603  -31.6031  -11.7884 C.ar    1  LIG1       -0.1500
      2 C          15.2232  -32.8553  -12.3485 C.ar    1  LIG1       -0.1500
      3 C          15.6739  -34.0149  -11.7164 C.ar    1  LIG1       -0.1440
      4 C          16.3694  -33.8917  -10.5023 C.ar    1  LIG1        0.1170
      5 C          16.6072  -32.6413   -9.9304 C.ar    1  LIG1       -0.1500
      6 C          16.1514  -31.4978  -10.5801 C.ar    1  LIG1        0.1770
      7 CL         16.4340  -29.9352   -9.8874 Cl      1  LIG1       -0.1770
      8 C          15.4074  -35.3680  -12.3533 C.3     1  LIG1       -0.0960
      9 N          16.7959  -35.0785   -9.8518 N.am    1  LIG1       -0.5470
     10 C          17.7339  -35.9782  -10.2904 C.2     1  LIG1        0.5690
     11 C          17.9943  -37.1750   -9.3772 C.3     1  LIG1       -0.0190
     12 O          18.2706  -35.8362  -11.3704 O.2     1  LIG1       -0.5700
     13 C          16.7877  -38.1413   -9.5352 C.3     1  LIG1       -0.1600
     14 C          19.3016  -37.8714   -9.8314 C.3     1  LIG1       -0.2400
     15 C          16.3102  -38.1871  -11.0013 C.3     1  LIG1       -0.0800
     16 C          17.3106  -38.7835  -11.9962 C.3     1  LIG1       -0.1600
     17 C          16.4628  -39.2214  -13.1951 C.3     1  LIG1       -0.1600
     18 C          15.0221  -39.3235  -12.6811 C.3     1  LIG1       -0.1600
     19 C          15.1174  -39.1278  -11.1691 C.3     1  LIG1       -0.1600
     20 H          15.1183  -30.7250  -12.2713 H       1  LIG1        0.1500
     21 H          14.6965  -32.9216  -13.2658 H       1  LIG1        0.1500
     22 H          17.1215  -32.5496   -9.0108 H       1  LIG1        0.1500
     23 H          14.7279  -35.9254  -11.7095 H       1  LIG1        0.0800
     24 H          14.9538  -35.2245  -13.3345 H       1  LIG1        0.0800
     25 H          16.3590  -35.8901  -12.4647 H       1  LIG1        0.0800
     26 H          16.3091  -35.3256   -8.9861 H       1  LIG1        0.3700
     27 H          18.0926  -36.8344   -8.3566 H       1  LIG1        0.0800
     28 H          15.9690  -37.8203   -8.8881 H       1  LIG1        0.0800
     29 H          17.0878  -39.1452   -9.2276 H       1  LIG1        0.0800
     30 H          19.5614  -38.6596   -9.1260 H       1  LIG1        0.0800
     31 H          19.1623  -38.2821  -10.8325 H       1  LIG1        0.0800
     32 H          20.0968  -37.1249   -9.8491 H       1  LIG1        0.0800
     33 H          16.0076  -37.1937  -11.3393 H       1  LIG1        0.0800
     34 H          17.7923  -39.6592  -11.5581 H       1  LIG1        0.0800
     35 H          18.0624  -38.0523  -12.2982 H       1  LIG1        0.0800
     36 H          16.8097  -40.1858  -13.5721 H       1  LIG1        0.0800
     37 H          16.5171  -38.4758  -13.9899 H       1  LIG1        0.0800
     38 H          14.5785  -40.2908  -12.9247 H       1  LIG1        0.0800
     39 H          14.4236  -38.5217  -13.1164 H       1  LIG1        0.0800
     40 H          14.2027  -38.6916  -10.7642 H       1  LIG1        0.0800
     41 H          15.3216  -40.0863  -10.6872 H       1  LIG1        0.0800
@<TRIPOS>BOND
     1     1     2   ar
     2     1     6   ar
     3     1    20    1
     4     2     3   ar
     5     2    21    1
     6     3     4   ar
     7     3     8    1
     8     4     5   ar
     9     4     9    1
    10     5     6   ar
    11     5    22    1
    12     6     7    1
    13     8    23    1
    14     8    24    1
    15     8    25    1
    16     9    10   am
    17     9    26    1
    18    10    11    1
    19    10    12    2
    20    11    13    1
    21    11    14    1
    22    11    27    1
    23    13    15    1
    24    13    28    1
    25    13    29    1
    26    14    30    1
    27    14    31    1
    28    14    32    1
    29    15    16    1
    30    15    19    1
    31    15    33    1
    32    16    17    1
    33    16    34    1
    34    16    35    1
    35    17    18    1
    36    17    36    1
    37    17    37    1
    38    18    19    1
    39    18    38    1
    40    18    39    1
    41    19    40    1
    42    19    41    1
@<TRIPOS>SUBSTRUCTURE
     1 LIG1        1 TEMP              0 ****  ****    0 ROOT


##########                                Name:    Z1203922336.****
##########                        Cluster_Size:                   1
##########                          Grid_Score:          -34.167793
##########                     Grid_vdw_energy:          -31.030214
##########                      Grid_es_energy:           -3.137578
##########           Internal_energy_repulsive:           11.165569

@<TRIPOS>MOLECULE
Z1203922336.****
 41 42 1 0 0
SMALL
USER_CHARGES
****

@<TRIPOS>ATOM
      1 C          15.3745  -38.0928  -16.5318 C.ar    1  LIG1       -0.1500
      2 C          14.7451  -38.6484  -15.4213 C.ar    1  LIG1       -0.1500
      3 C          14.7426  -37.9805  -14.1961 C.ar    1  LIG1       -0.1440
      4 C          15.3863  -36.7351  -14.1081 C.ar    1  LIG1        0.1170
      5 C          16.0152  -36.1678  -15.2169 C.ar    1  LIG1       -0.1500
      6 C          16.0081  -36.8533  -16.4284 C.ar    1  LIG1        0.1770
      7 CL         16.7813  -36.1669  -17.8185 Cl      1  LIG1       -0.1770
      8 C          14.0542  -38.6130  -12.9987 C.3     1  LIG1       -0.0960
      9 N          15.3510  -36.0497  -12.8660 N.am    1  LIG1       -0.5470
     10 C          15.3207  -34.6934  -12.6634 C.2     1  LIG1        0.5690
     11 C          15.2860  -34.2332  -11.2070 C.3     1  LIG1       -0.0190
     12 O          15.3746  -33.9256  -13.6026 O.2     1  LIG1       -0.5700
     13 C          16.7399  -34.3205  -10.6655 C.3     1  LIG1       -0.1600
     14 C          14.7841  -32.7681  -11.1606 C.3     1  LIG1       -0.2400
     15 C          17.1197  -35.7813  -10.3473 C.3     1  LIG1       -0.0800
     16 C          18.2830  -36.3476  -11.1673 C.3     1  LIG1       -0.1600
     17 C          18.8139  -37.5236  -10.3408 C.3     1  LIG1       -0.1600
     18 C          18.3011  -37.3041   -8.9128 C.3     1  LIG1       -0.1600
     19 C          17.6566  -35.9191   -8.9230 C.3     1  LIG1       -0.1600
     20 H          15.3759  -38.6028  -17.4598 H       1  LIG1        0.1500
     21 H          14.2668  -39.5897  -15.5134 H       1  LIG1        0.1500
     22 H          16.4905  -35.2251  -15.1530 H       1  LIG1        0.1500
     23 H          13.1981  -37.9966  -12.7268 H       1  LIG1        0.0800
     24 H          13.7193  -39.6170  -13.2609 H       1  LIG1        0.0800
     25 H          14.7721  -38.6708  -12.1791 H       1  LIG1        0.0800
     26 H          15.4147  -36.6270  -12.0234 H       1  LIG1        0.3700
     27 H          14.6191  -34.8701  -10.6440 H       1  LIG1        0.0800
     28 H          16.8378  -33.7074   -9.7673 H       1  LIG1        0.0800
     29 H          17.4284  -33.9299  -11.4178 H       1  LIG1        0.0800
     30 H          14.6484  -32.4596  -10.1249 H       1  LIG1        0.0800
     31 H          15.5070  -32.1233  -11.6623 H       1  LIG1        0.0800
     32 H          13.8267  -32.7195  -11.6812 H       1  LIG1        0.0800
     33 H          16.2510  -36.4357  -10.4460 H       1  LIG1        0.0800
     34 H          19.0675  -35.5956  -11.2668 H       1  LIG1        0.0800
     35 H          17.9552  -36.6820  -12.1530 H       1  LIG1        0.0800
     36 H          19.9055  -37.5397  -10.3630 H       1  LIG1        0.0800
     37 H          18.4251  -38.4659  -10.7298 H       1  LIG1        0.0800
     38 H          19.1128  -37.3542   -8.1845 H       1  LIG1        0.0800
     39 H          17.5465  -38.0566   -8.6783 H       1  LIG1        0.0800
     40 H          16.8569  -35.8451   -8.1841 H       1  LIG1        0.0800
     41 H          18.4170  -35.1592   -8.7307 H       1  LIG1        0.0800
@<TRIPOS>BOND
     1     1     2   ar
     2     1     6   ar
     3     1    20    1
     4     2     3   ar
     5     2    21    1
     6     3     4   ar
     7     3     8    1
     8     4     5   ar
     9     4     9    1
    10     5     6   ar
    11     5    22    1
    12     6     7    1
    13     8    23    1
    14     8    24    1
    15     8    25    1
    16     9    10   am
    17     9    26    1
    18    10    11    1
    19    10    12    2
    20    11    13    1
    21    11    14    1
    22    11    27    1
    23    13    15    1
    24    13    28    1
    25    13    29    1
    26    14    30    1
    27    14    31    1
    28    14    32    1
    29    15    16    1
    30    15    19    1
    31    15    33    1
    32    16    17    1
    33    16    34    1
    34    16    35    1
    35    17    18    1
    36    17    36    1
    37    17    37    1
    38    18    19    1
    39    18    38    1
    40    18    39    1
    41    19    40    1
    42    19    41    1
@<TRIPOS>SUBSTRUCTURE
     1 LIG1        1 TEMP              0 ****  ****    0 ROOT


##########                                Name:    Z1203922336.****
##########                        Cluster_Size:                   1
##########                          Grid_Score:          -33.148808
##########                     Grid_vdw_energy:          -29.919727
##########                      Grid_es_energy:           -3.229079
##########           Internal_energy_repulsive:           16.820560

@<TRIPOS>MOLECULE
Z1203922336.****
 41 42 1 0 0
SMALL
USER_CHARGES
****

@<TRIPOS>ATOM
      1 C          16.0038  -42.4719  -10.6532 C.ar    1  LIG1       -0.1500
      2 C          17.1464  -41.7154  -10.4080 C.ar    1  LIG1       -0.1500
      3 C          17.0991  -40.3213  -10.4465 C.ar    1  LIG1       -0.1440
      4 C          15.8739  -39.6980  -10.7354 C.ar    1  LIG1        0.1170
      5 C          14.7221  -40.4477  -10.9774 C.ar    1  LIG1       -0.1500
      6 C          14.7933  -41.8372  -10.9370 C.ar    1  LIG1        0.1770
      7 CL         13.3755  -42.7878  -11.2326 Cl      1  LIG1       -0.1770
      8 C          18.3625  -39.5206  -10.1818 C.3     1  LIG1       -0.0960
      9 N          15.8293  -38.2797  -10.7411 N.am    1  LIG1       -0.5470
     10 C          15.3845  -37.4641  -11.7503 C.2     1  LIG1        0.5690
     11 C          15.4530  -35.9622  -11.4787 C.3     1  LIG1       -0.0190
     12 O          15.0147  -37.9327  -12.8078 O.2     1  LIG1       -0.5700
     13 C          15.3069  -35.2430  -12.8484 C.3     1  LIG1       -0.1600
     14 C          14.2823  -35.5728  -10.5415 C.3     1  LIG1       -0.2400
     15 C          16.6798  -35.0846  -13.5337 C.3     1  LIG1       -0.0800
     16 C          17.7387  -36.1115  -13.1209 C.3     1  LIG1       -0.1600
     17 C          18.7569  -36.1118  -14.2660 C.3     1  LIG1       -0.1600
     18 C          18.0392  -35.4945  -15.4719 C.3     1  LIG1       -0.1600
     19 C          16.5830  -35.3360  -15.0381 C.3     1  LIG1       -0.1600
     20 H          16.0433  -43.5297  -10.6248 H       1  LIG1        0.1500
     21 H          18.0590  -42.2095  -10.1928 H       1  LIG1        0.1500
     22 H          13.7974  -39.9778  -11.1843 H       1  LIG1        0.1500
     23 H          18.2310  -38.9636   -9.2547 H       1  LIG1        0.0800
     24 H          19.2102  -40.2000  -10.0885 H       1  LIG1        0.0800
     25 H          18.5266  -38.8469  -11.0242 H       1  LIG1        0.0800
     26 H          16.2278  -37.8066   -9.9259 H       1  LIG1        0.3700
     27 H          16.3967  -35.7239  -11.0095 H       1  LIG1        0.0800
     28 H          14.8486  -34.2625  -12.7046 H       1  LIG1        0.0800
     29 H          14.6522  -35.8304  -13.4955 H       1  LIG1        0.0800
     30 H          14.3787  -34.5280  -10.2490 H       1  LIG1        0.0800
     31 H          13.3360  -35.7419  -11.0573 H       1  LIG1        0.0800
     32 H          14.3330  -36.2036   -9.6530 H       1  LIG1        0.0800
     33 H          17.0714  -34.0762  -13.3839 H       1  LIG1        0.0800
     34 H          17.2855  -37.1011  -13.0432 H       1  LIG1        0.0800
     35 H          18.2153  -35.8409  -12.1772 H       1  LIG1        0.0800
     36 H          19.0787  -37.1319  -14.4862 H       1  LIG1        0.0800
     37 H          19.6230  -35.5027  -14.0028 H       1  LIG1        0.0800
     38 H          18.1190  -36.1325  -16.3541 H       1  LIG1        0.0800
     39 H          18.4659  -34.5131  -15.6850 H       1  LIG1        0.0800
     40 H          16.1009  -34.5037  -15.5537 H       1  LIG1        0.0800
     41 H          16.0396  -36.2633  -15.2320 H       1  LIG1        0.0800
@<TRIPOS>BOND
     1     1     2   ar
     2     1     6   ar
     3     1    20    1
     4     2     3   ar
     5     2    21    1
     6     3     4   ar
     7     3     8    1
     8     4     5   ar
     9     4     9    1
    10     5     6   ar
    11     5    22    1
    12     6     7    1
    13     8    23    1
    14     8    24    1
    15     8    25    1
    16     9    10   am
    17     9    26    1
    18    10    11    1
    19    10    12    2
    20    11    13    1
    21    11    14    1
    22    11    27    1
    23    13    15    1
    24    13    28    1
    25    13    29    1
    26    14    30    1
    27    14    31    1
    28    14    32    1
    29    15    16    1
    30    15    19    1
    31    15    33    1
    32    16    17    1
    33    16    34    1
    34    16    35    1
    35    17    18    1
    36    17    36    1
    37    17    37    1
    38    18    19    1
    39    18    38    1
    40    18    39    1
    41    19    40    1
    42    19    41    1
@<TRIPOS>SUBSTRUCTURE
     1 LIG1        1 TEMP              0 ****  ****    0 ROOT


##########                                Name:    Z1203922336.****
##########                        Cluster_Size:                   1
##########                          Grid_Score:          -33.103207
##########                     Grid_vdw_energy:          -31.459682
##########                      Grid_es_energy:           -1.643523
##########           Internal_energy_repulsive:           19.211306

@<TRIPOS>MOLECULE
Z1203922336.****
 41 42 1 0 0
SMALL
USER_CHARGES
****

@<TRIPOS>ATOM
      1 C          16.3764  -39.0261  -17.1538 C.ar    1  LIG1       -0.1500
      2 C          16.5515  -37.6475  -17.2362 C.ar    1  LIG1       -0.1500
      3 C          16.8802  -36.9025  -16.1030 C.ar    1  LIG1       -0.1440
      4 C          17.0329  -37.5735  -14.8785 C.ar    1  LIG1        0.1170
      5 C          16.8646  -38.9557  -14.7870 C.ar    1  LIG1       -0.1500
      6 C          16.5336  -39.6783  -15.9297 C.ar    1  LIG1        0.1770
      7 CL         16.3215  -41.3953  -15.8396 Cl      1  LIG1       -0.1770
      8 C          17.0587  -35.3985  -16.2201 C.3     1  LIG1       -0.0960
      9 N          17.3980  -36.8114  -13.7385 N.am    1  LIG1       -0.5470
     10 C          17.6525  -37.2749  -12.4728 C.2     1  LIG1        0.5690
     11 C          18.0268  -36.2189  -11.4342 C.3     1  LIG1       -0.0190
     12 O          17.5267  -38.4533  -12.2080 O.2     1  LIG1       -0.5700
     13 C          16.7041  -35.7337  -10.7787 C.3     1  LIG1       -0.1600
     14 C          18.9441  -36.8720  -10.3699 C.3     1  LIG1       -0.2400
     15 C          16.4025  -34.2723  -11.1693 C.3     1  LIG1       -0.0800
     16 C          15.3923  -34.0950  -12.3070 C.3     1  LIG1       -0.1600
     17 C          14.8587  -32.6679  -12.1433 C.3     1  LIG1       -0.1600
     18 C          15.1791  -32.2582  -10.7012 C.3     1  LIG1       -0.1600
     19 C          15.7118  -33.5230  -10.0303 C.3     1  LIG1       -0.1600
     20 H          16.1255  -39.5883  -18.0153 H       1  LIG1        0.1500
     21 H          16.4302  -37.1645  -18.1718 H       1  LIG1        0.1500
     22 H          16.9902  -39.4620  -13.8669 H       1  LIG1        0.1500
     23 H          18.1026  -35.1578  -16.0220 H       1  LIG1        0.0800
     24 H          16.7894  -35.0782  -17.2270 H       1  LIG1        0.0800
     25 H          16.4005  -34.9158  -15.4960 H       1  LIG1        0.0800
     26 H          17.4172  -35.7949  -13.8553 H       1  LIG1        0.3700
     27 H          18.5455  -35.4047  -11.9193 H       1  LIG1        0.0800
     28 H          16.7756  -35.8204   -9.6926 H       1  LIG1        0.0800
     29 H          15.8816  -36.3685  -11.1148 H       1  LIG1        0.0800
     30 H          19.3095  -36.1096   -9.6832 H       1  LIG1        0.0800
     31 H          18.3834  -37.6374   -9.8315 H       1  LIG1        0.0800
     32 H          19.7895  -37.3310  -10.8843 H       1  LIG1        0.0800
     33 H          17.3245  -33.7405  -11.4138 H       1  LIG1        0.0800
     34 H          14.5698  -34.8019  -12.1864 H       1  LIG1        0.0800
     35 H          15.8600  -34.2252  -13.2844 H       1  LIG1        0.0800
     36 H          13.7819  -32.6434  -12.3237 H       1  LIG1        0.0800
     37 H          15.3624  -31.9933  -12.8374 H       1  LIG1        0.0800
     38 H          14.2926  -31.8838  -10.1858 H       1  LIG1        0.0800
     39 H          15.9559  -31.4919  -10.7056 H       1  LIG1        0.0800
     40 H          16.4096  -33.2848   -9.2257 H       1  LIG1        0.0800
     41 H          14.8777  -34.1114   -9.6421 H       1  LIG1        0.0800
@<TRIPOS>BOND
     1     1     2   ar
     2     1     6   ar
     3     1    20    1
     4     2     3   ar
     5     2    21    1
     6     3     4   ar
     7     3     8    1
     8     4     5   ar
     9     4     9    1
    10     5     6   ar
    11     5    22    1
    12     6     7    1
    13     8    23    1
    14     8    24    1
    15     8    25    1
    16     9    10   am
    17     9    26    1
    18    10    11    1
    19    10    12    2
    20    11    13    1
    21    11    14    1
    22    11    27    1
    23    13    15    1
    24    13    28    1
    25    13    29    1
    26    14    30    1
    27    14    31    1
    28    14    32    1
    29    15    16    1
    30    15    19    1
    31    15    33    1
    32    16    17    1
    33    16    34    1
    34    16    35    1
    35    17    18    1
    36    17    36    1
    37    17    37    1
    38    18    19    1
    39    18    38    1
    40    18    39    1
    41    19    40    1
    42    19    41    1
@<TRIPOS>SUBSTRUCTURE
     1 LIG1        1 TEMP              0 ****  ****    0 ROOT


##########                                Name:     Z854669466.****
##########                        Cluster_Size:                   5
##########                          Grid_Score:          -39.404579
##########                     Grid_vdw_energy:          -34.970936
##########                      Grid_es_energy:           -4.433645
##########           Internal_energy_repulsive:           16.548908

@<TRIPOS>MOLECULE
Z854669466.****
 39 41 1 0 0
SMALL
USER_CHARGES
****

@<TRIPOS>ATOM
      1 C          15.4854  -31.2724  -11.5892 C.ar    1  LIG1       -0.1500
      2 C          14.8072  -32.3966  -12.0545 C.ar    1  LIG1       -0.1500
      3 C          14.9291  -33.6222  -11.4009 C.ar    1  LIG1       -0.1440
      4 C          15.7488  -33.6996  -10.2628 C.ar    1  LIG1        0.1170
      5 C          16.4358  -32.5796   -9.7922 C.ar    1  LIG1       -0.1500
      6 C          16.2980  -31.3657  -10.4586 C.ar    1  LIG1        0.1770
      7 CL         17.1451  -29.9645   -9.8923 Cl      1  LIG1       -0.1770
      8 C          14.1744  -34.8309  -11.9276 C.3     1  LIG1       -0.0960
      9 N          15.8943  -34.9574   -9.6242 N.am    1  LIG1       -0.5470
     10 C          17.0413  -35.6999   -9.5029 C.2     1  LIG1        0.5690
     11 C          16.9266  -37.0160   -8.7705 C.3     1  LIG1       -0.0990
     12 O          18.0940  -35.2990   -9.9468 O.2     1  LIG1       -0.5700
     13 C          17.3873  -38.1380   -9.7310 C.3     1  LIG1        0.1100
     14 C          16.6351  -37.9903  -11.0743 C.3     1  LIG1       -0.1950
     15 C          18.8805  -37.8753  -10.0246 C.3     1  LIG1       -0.1950
     16 C          19.8003  -37.8941   -8.8381 C.3     1  LIG1       -0.2000
     17 C          19.8131  -39.0349   -9.8288 C.3     1  LIG1       -0.2000
     18 C          16.6044  -39.2058  -11.9560 C.3     1  LIG1       -0.2000
     19 C          15.3607  -38.7730  -11.2149 C.3     1  LIG1       -0.2000
     20 H          15.3889  -30.3430  -12.0878 H       1  LIG1        0.1500
     21 H          14.1935  -32.3112  -12.9150 H       1  LIG1        0.1500
     22 H          17.0620  -32.6393   -8.9411 H       1  LIG1        0.1500
     23 H          13.5707  -35.2417  -11.1172 H       1  LIG1        0.0800
     24 H          13.5223  -34.5229  -12.7463 H       1  LIG1        0.0800
     25 H          14.8985  -35.5622  -12.2871 H       1  LIG1        0.0800
     26 H          15.0587  -35.3384   -9.1690 H       1  LIG1        0.3700
     27 H          15.8903  -37.1721   -8.5113 H       1  LIG1        0.0800
     28 H          17.5729  -36.9858   -7.9049 H       1  LIG1        0.0800
     29 H          17.2408  -39.1187   -9.2967 H       1  LIG1        0.0800
     30 H          16.6974  -37.0188  -11.5496 H       1  LIG1        0.1000
     31 H          19.0888  -37.1787  -10.8270 H       1  LIG1        0.1000
     32 H          19.3707  -38.1068   -7.8681 H       1  LIG1        0.1000
     33 H          20.6460  -37.2197   -8.8724 H       1  LIG1        0.1000
     34 H          20.6613  -39.0863  -10.4982 H       1  LIG1        0.1000
     35 H          19.3866  -39.9714   -9.4927 H       1  LIG1        0.1000
     36 H          17.0917  -40.1014  -11.5947 H       1  LIG1        0.1000
     37 H          16.6172  -39.0260  -13.0228 H       1  LIG1        0.1000
     38 H          14.5792  -38.3068  -11.8012 H       1  LIG1        0.1000
     39 H          15.0545  -39.3913  -10.3827 H       1  LIG1        0.1000
@<TRIPOS>BOND
     1     1     2   ar
     2     1     6   ar
     3     1    20    1
     4     2     3   ar
     5     2    21    1
     6     3     4   ar
     7     3     8    1
     8     4     5   ar
     9     4     9    1
    10     5     6   ar
    11     5    22    1
    12     6     7    1
    13     8    23    1
    14     8    24    1
    15     8    25    1
    16     9    10   am
    17     9    26    1
    18    10    11    1
    19    10    12    2
    20    11    13    1
    21    11    27    1
    22    11    28    1
    23    13    14    1
    24    13    15    1
    25    13    29    1
    26    14    18    1
    27    14    19    1
    28    14    30    1
    29    15    16    1
    30    15    17    1
    31    15    31    1
    32    16    17    1
    33    16    32    1
    34    16    33    1
    35    17    34    1
    36    17    35    1
    37    18    19    1
    38    18    36    1
    39    18    37    1
    40    19    38    1
    41    19    39    1
@<TRIPOS>SUBSTRUCTURE
     1 LIG1        1 TEMP              0 ****  ****    0 ROOT


##########                                Name:     Z854669466.****
##########                        Cluster_Size:                   4
##########                          Grid_Score:          -39.376892
##########                     Grid_vdw_energy:          -34.292160
##########                      Grid_es_energy:           -5.084733
##########           Internal_energy_repulsive:           25.983139

@<TRIPOS>MOLECULE
Z854669466.****
 39 41 1 0 0
SMALL
USER_CHARGES
****

@<TRIPOS>ATOM
      1 C          17.9905  -41.1377   -9.7136 C.ar    1  LIG1       -0.1500
      2 C          18.9002  -40.2460   -9.1499 C.ar    1  LIG1       -0.1500
      3 C          18.5946  -38.8897   -9.0440 C.ar    1  LIG1       -0.1440
      4 C          17.3499  -38.4412   -9.5161 C.ar    1  LIG1        0.1170
      5 C          16.4343  -39.3266  -10.0866 C.ar    1  LIG1       -0.1500
      6 C          16.7590  -40.6766  -10.1803 C.ar    1  LIG1        0.1770
      7 CL         15.6374  -41.7912  -10.8883 Cl      1  LIG1       -0.1770
      8 C          19.6037  -37.9404   -8.4207 C.3     1  LIG1       -0.0960
      9 N          17.0610  -37.0552   -9.4359 N.am    1  LIG1       -0.5470
     10 C          16.7353  -36.2132  -10.4687 C.2     1  LIG1        0.5690
     11 C          16.4720  -34.7690  -10.1130 C.3     1  LIG1       -0.0990
     12 O          16.6449  -36.6241  -11.6039 O.2     1  LIG1       -0.5700
     13 C          16.3323  -33.9710  -11.4312 C.3     1  LIG1        0.1100
     14 C          14.8737  -34.0815  -11.9337 C.3     1  LIG1       -0.1950
     15 C          16.5689  -32.4882  -11.0707 C.3     1  LIG1       -0.1950
     16 C          15.3453  -31.6877  -10.7298 C.3     1  LIG1       -0.2000
     17 C          16.3122  -32.0992   -9.6440 C.3     1  LIG1       -0.2000
     18 C          14.5697  -33.4124  -13.2436 C.3     1  LIG1       -0.2000
     19 C          14.6525  -34.9190  -13.1609 C.3     1  LIG1       -0.2000
     20 H          18.2261  -42.1674   -9.7908 H       1  LIG1        0.1500
     21 H          19.8325  -40.6103   -8.7997 H       1  LIG1        0.1500
     22 H          15.5006  -38.9881  -10.4522 H       1  LIG1        0.1500
     23 H          19.1171  -37.4064   -7.6034 H       1  LIG1        0.0800
     24 H          20.4466  -38.5124   -8.0301 H       1  LIG1        0.0800
     25 H          19.9506  -37.2496   -9.1894 H       1  LIG1        0.0800
     26 H          17.0575  -36.6425   -8.4976 H       1  LIG1        0.3700
     27 H          17.3194  -34.3951   -9.5583 H       1  LIG1        0.0800
     28 H          15.5499  -34.7151   -9.5521 H       1  LIG1        0.0800
     29 H          17.0390  -34.3095  -12.1780 H       1  LIG1        0.0800
     30 H          14.1060  -34.0756  -11.1694 H       1  LIG1        0.1000
     31 H          17.3754  -31.9963  -11.5999 H       1  LIG1        0.1000
     32 H          14.3900  -32.1956  -10.7380 H       1  LIG1        0.1000
     33 H          15.3577  -30.6432  -11.0124 H       1  LIG1        0.1000
     34 H          16.9449  -31.3214   -9.2379 H       1  LIG1        0.1000
     35 H          15.9759  -32.8725   -8.9652 H       1  LIG1        0.1000
     36 H          15.3825  -32.9139  -13.7541 H       1  LIG1        0.1000
     37 H          13.5796  -32.9889  -13.3483 H       1  LIG1        0.1000
     38 H          13.7177  -35.4633  -13.2023 H       1  LIG1        0.1000
     39 H          15.5162  -35.3811  -13.6183 H       1  LIG1        0.1000
@<TRIPOS>BOND
     1     1     2   ar
     2     1     6   ar
     3     1    20    1
     4     2     3   ar
     5     2    21    1
     6     3     4   ar
     7     3     8    1
     8     4     5   ar
     9     4     9    1
    10     5     6   ar
    11     5    22    1
    12     6     7    1
    13     8    23    1
    14     8    24    1
    15     8    25    1
    16     9    10   am
    17     9    26    1
    18    10    11    1
    19    10    12    2
    20    11    13    1
    21    11    27    1
    22    11    28    1
    23    13    14    1
    24    13    15    1
    25    13    29    1
    26    14    18    1
    27    14    19    1
    28    14    30    1
    29    15    16    1
    30    15    17    1
    31    15    31    1
    32    16    17    1
    33    16    32    1
    34    16    33    1
    35    17    34    1
    36    17    35    1
    37    18    19    1
    38    18    36    1
    39    18    37    1
    40    19    38    1
    41    19    39    1
@<TRIPOS>SUBSTRUCTURE
     1 LIG1        1 TEMP              0 ****  ****    0 ROOT


##########                                Name:     Z854669466.****
##########                        Cluster_Size:                   1
##########                          Grid_Score:          -35.006973
##########                     Grid_vdw_energy:          -32.121227
##########                      Grid_es_energy:           -2.885746
##########           Internal_energy_repulsive:           24.595301

@<TRIPOS>MOLECULE
Z854669466.****
 39 41 1 0 0
SMALL
USER_CHARGES
****

@<TRIPOS>ATOM
      1 C          15.1206  -32.1335  -11.5420 C.ar    1  LIG1       -0.1500
      2 C          14.4777  -33.2441  -12.0839 C.ar    1  LIG1       -0.1500
      3 C          14.6996  -34.5187  -11.5640 C.ar    1  LIG1       -0.1440
      4 C          15.5839  -34.6597  -10.4816 C.ar    1  LIG1        0.1170
      5 C          16.2361  -33.5533   -9.9354 C.ar    1  LIG1       -0.1500
      6 C          15.9982  -32.2900  -10.4684 C.ar    1  LIG1        0.1770
      7 CL         16.8005  -30.9043   -9.8066 Cl      1  LIG1       -0.1770
      8 C          13.9815  -35.7116  -12.1716 C.3     1  LIG1       -0.0960
      9 N          15.8303  -35.9634   -9.9811 N.am    1  LIG1       -0.5470
     10 C          17.0029  -36.6719  -10.0498 C.2     1  LIG1        0.5690
     11 C          17.0023  -38.0514   -9.4344 C.3     1  LIG1       -0.0990
     12 O          17.9908  -36.1952  -10.5622 O.2     1  LIG1       -0.5700
     13 C          17.2522  -39.0779  -10.5648 C.3     1  LIG1        0.1100
     14 C          17.9174  -40.3374   -9.9623 C.3     1  LIG1       -0.1950
     15 C          15.8609  -39.5099  -11.0772 C.3     1  LIG1       -0.1950
     16 C          15.8506  -40.4508  -12.2472 C.3     1  LIG1       -0.2000
     17 C          15.4898  -40.9489  -10.8671 C.3     1  LIG1       -0.2000
     18 C          18.6839  -41.2060  -10.9183 C.3     1  LIG1       -0.2000
     19 C          19.4190  -40.3430   -9.9191 C.3     1  LIG1       -0.2000
     20 H          14.9480  -31.1670  -11.9390 H       1  LIG1        0.1500
     21 H          13.8137  -33.1105  -12.8998 H       1  LIG1        0.1500
     22 H          16.9106  -33.6597   -9.1268 H       1  LIG1        0.1500
     23 H          13.4459  -36.2339  -11.3776 H       1  LIG1        0.0800
     24 H          13.2699  -35.3631  -12.9216 H       1  LIG1        0.0800
     25 H          14.7220  -36.3612  -12.6385 H       1  LIG1        0.0800
     26 H          15.0588  -36.4134   -9.4783 H       1  LIG1        0.3700
     27 H          16.0303  -38.2298   -8.9997 H       1  LIG1        0.0800
     28 H          17.8003  -38.1046   -8.7077 H       1  LIG1        0.0800
     29 H          17.8484  -38.6539  -11.3627 H       1  LIG1        0.0800
     30 H          17.3776  -40.8208   -9.1570 H       1  LIG1        0.1000
     31 H          15.0798  -38.7631  -11.0098 H       1  LIG1        0.1000
     32 H          16.8035  -40.7789  -12.6410 H       1  LIG1        0.1000
     33 H          15.0323  -40.3418  -12.9469 H       1  LIG1        0.1000
     34 H          14.4434  -41.1522  -10.6832 H       1  LIG1        0.1000
     35 H          16.2144  -41.5886  -10.3796 H       1  LIG1        0.1000
     36 H          18.7343  -40.8928  -11.9523 H       1  LIG1        0.1000
     37 H          18.6694  -42.2693  -10.7186 H       1  LIG1        0.1000
     38 H          19.8679  -40.8480   -9.0734 H       1  LIG1        0.1000
     39 H          19.9378  -39.4811  -10.3147 H       1  LIG1        0.1000
@<TRIPOS>BOND
     1     1     2   ar
     2     1     6   ar
     3     1    20    1
     4     2     3   ar
     5     2    21    1
     6     3     4   ar
     7     3     8    1
     8     4     5   ar
     9     4     9    1
    10     5     6   ar
    11     5    22    1
    12     6     7    1
    13     8    23    1
    14     8    24    1
    15     8    25    1
    16     9    10   am
    17     9    26    1
    18    10    11    1
    19    10    12    2
    20    11    13    1
    21    11    27    1
    22    11    28    1
    23    13    14    1
    24    13    15    1
    25    13    29    1
    26    14    18    1
    27    14    19    1
    28    14    30    1
    29    15    16    1
    30    15    17    1
    31    15    31    1
    32    16    17    1
    33    16    32    1
    34    16    33    1
    35    17    34    1
    36    17    35    1
    37    18    19    1
    38    18    36    1
    39    18    37    1
    40    19    38    1
    41    19    39    1
@<TRIPOS>SUBSTRUCTURE
     1 LIG1        1 TEMP              0 ****  ****    0 ROOT


##########                                Name:    Z1273128799.****
##########                        Cluster_Size:                   8
##########                          Grid_Score:          -38.413460
##########                     Grid_vdw_energy:          -32.007511
##########                      Grid_es_energy:           -6.405949
##########           Internal_energy_repulsive:            8.932190

@<TRIPOS>MOLECULE
Z1273128799.****
 32 33 1 0 0
SMALL
USER_CHARGES
****

@<TRIPOS>ATOM
      1 C          15.1562  -31.5639  -11.2069 C.ar    1  LIG1       -0.1500
      2 C          14.5721  -32.7883  -11.5246 C.ar    1  LIG1       -0.1500
      3 C          14.9655  -33.9556  -10.8694 C.ar    1  LIG1       -0.1440
      4 C          15.9564  -33.8608   -9.8805 C.ar    1  LIG1        0.1170
      5 C          16.5564  -32.6478   -9.5600 C.ar    1  LIG1       -0.1500
      6 C          16.1494  -31.4955  -10.2270 C.ar    1  LIG1        0.1770
      7 CL         16.8738  -29.9710   -9.8381 Cl      1  LIG1       -0.1770
      8 C          14.3246  -35.2841  -11.2337 C.3     1  LIG1       -0.0960
      9 N          16.3706  -35.0096   -9.1810 N.am    1  LIG1       -0.5470
     10 C          17.2231  -35.9586   -9.6501 C.2     1  LIG1        0.5690
     11 C          17.6115  -37.1653   -8.8194 C.3     1  LIG1       -0.0990
     12 O          17.6530  -35.7703  -10.7639 O.2     1  LIG1       -0.5700
     13 C          18.9485  -37.6847   -9.3880 C.3     1  LIG1        0.0000
     14 C          18.8631  -38.1812  -10.8599 C.3     1  LIG1        0.0000
     15 C          19.7984  -39.3466  -10.4200 C.3     1  LIG1        0.0000
     16 C          19.2551  -39.1501   -8.9728 C.3     1  LIG1        0.0000
     17 H          14.8547  -30.6794  -11.7072 H       1  LIG1        0.1500
     18 H          13.8221  -32.8272  -12.2733 H       1  LIG1        0.1500
     19 H          17.3095  -32.5959   -8.8182 H       1  LIG1        0.1500
     20 H          15.1162  -35.9952  -11.4707 H       1  LIG1        0.0800
     21 H          13.7423  -35.6330  -10.3819 H       1  LIG1        0.0800
     22 H          13.6770  -35.1513  -12.1002 H       1  LIG1        0.0800
     23 H          16.0243  -35.1761   -8.2268 H       1  LIG1        0.3700
     24 H          16.8453  -37.9180   -8.9413 H       1  LIG1        0.0800
     25 H          17.7560  -36.8812   -7.7884 H       1  LIG1        0.0800
     26 H          19.7661  -37.0013   -9.1992 H       1  LIG1        0.0000
     27 H          19.3053  -37.5061  -11.5791 H       1  LIG1        0.0000
     28 H          17.8780  -38.5293  -11.1417 H       1  LIG1        0.0000
     29 H          20.8470  -39.0934  -10.5077 H       1  LIG1        0.0000
     30 H          19.5485  -40.3032  -10.8581 H       1  LIG1        0.0000
     31 H          18.3660  -39.7380   -8.7829 H       1  LIG1        0.0000
     32 H          20.0071  -39.2420   -8.2015 H       1  LIG1        0.0000
@<TRIPOS>BOND
     1     1     2   ar
     2     1     6   ar
     3     1    17    1
     4     2     3   ar
     5     2    18    1
     6     3     4   ar
     7     3     8    1
     8     4     5   ar
     9     4     9    1
    10     5     6   ar
    11     5    19    1
    12     6     7    1
    13     8    20    1
    14     8    21    1
    15     8    22    1
    16     9    10   am
    17     9    23    1
    18    10    11    1
    19    10    12    2
    20    11    13    1
    21    11    24    1
    22    11    25    1
    23    13    14    1
    24    13    16    1
    25    13    26    1
    26    14    15    1
    27    14    27    1
    28    14    28    1
    29    15    16    1
    30    15    29    1
    31    15    30    1
    32    16    31    1
    33    16    32    1
@<TRIPOS>SUBSTRUCTURE
     1 LIG1        1 TEMP              0 ****  ****    0 ROOT


##########                                Name:    Z1273128799.****
##########                        Cluster_Size:                   2
##########                          Grid_Score:          -34.469669
##########                     Grid_vdw_energy:          -29.360182
##########                      Grid_es_energy:           -5.109489
##########           Internal_energy_repulsive:            5.511586

@<TRIPOS>MOLECULE
Z1273128799.****
 32 33 1 0 0
SMALL
USER_CHARGES
****

@<TRIPOS>ATOM
      1 C          18.5061  -40.3855   -9.7026 C.ar    1  LIG1       -0.1500
      2 C          19.0282  -39.1403   -9.3587 C.ar    1  LIG1       -0.1500
      3 C          18.2026  -38.0178   -9.2868 C.ar    1  LIG1       -0.1440
      4 C          16.8363  -38.1793   -9.5621 C.ar    1  LIG1        0.1170
      5 C          16.3024  -39.4133   -9.9173 C.ar    1  LIG1       -0.1500
      6 C          17.1444  -40.5200   -9.9840 C.ar    1  LIG1        0.1770
      7 CL         16.5015  -42.0699  -10.4135 Cl      1  LIG1       -0.1770
      8 C          18.7892  -36.6656   -8.9187 C.3     1  LIG1       -0.0960
      9 N          15.9633  -37.0782   -9.4835 N.am    1  LIG1       -0.5470
     10 C          15.3693  -36.4609  -10.5388 C.2     1  LIG1        0.5690
     11 C          14.4407  -35.2775  -10.3535 C.3     1  LIG1       -0.0990
     12 O          15.6246  -36.9232  -11.6259 O.2     1  LIG1       -0.5700
     13 C          15.2242  -34.0241  -10.7958 C.3     1  LIG1        0.0000
     14 C          16.6512  -33.9184  -10.1852 C.3     1  LIG1        0.0000
     15 C          16.3621  -32.3971  -10.0166 C.3     1  LIG1        0.0000
     16 C          14.8458  -32.7550   -9.9834 C.3     1  LIG1        0.0000
     17 H          19.1367  -41.2358   -9.7562 H       1  LIG1        0.1500
     18 H          20.0643  -39.0509   -9.1513 H       1  LIG1        0.1500
     19 H          15.2709  -39.5153  -10.1314 H       1  LIG1        0.1500
     20 H          18.5059  -35.9461   -9.6872 H       1  LIG1        0.0800
     21 H          18.3890  -36.3660   -7.9510 H       1  LIG1        0.0800
     22 H          19.8753  -36.7410   -8.8670 H       1  LIG1        0.0800
     23 H          15.7255  -36.6827   -8.5641 H       1  LIG1        0.3700
     24 H          14.1956  -35.2038   -9.3032 H       1  LIG1        0.0800
     25 H          13.5674  -35.3836  -10.9785 H       1  LIG1        0.0800
     26 H          15.1906  -33.8780  -11.8675 H       1  LIG1        0.0000
     27 H          17.4465  -34.1433  -10.8819 H       1  LIG1        0.0000
     28 H          16.7526  -34.4250   -9.2344 H       1  LIG1        0.0000
     29 H          16.6340  -31.8229  -10.8927 H       1  LIG1        0.0000
     30 H          16.7354  -31.9760   -9.0930 H       1  LIG1        0.0000
     31 H          14.4957  -32.9739   -8.9827 H       1  LIG1        0.0000
     32 H          14.2152  -32.0597  -10.5198 H       1  LIG1        0.0000
@<TRIPOS>BOND
     1     1     2   ar
     2     1     6   ar
     3     1    17    1
     4     2     3   ar
     5     2    18    1
     6     3     4   ar
     7     3     8    1
     8     4     5   ar
     9     4     9    1
    10     5     6   ar
    11     5    19    1
    12     6     7    1
    13     8    20    1
    14     8    21    1
    15     8    22    1
    16     9    10   am
    17     9    23    1
    18    10    11    1
    19    10    12    2
    20    11    13    1
    21    11    24    1
    22    11    25    1
    23    13    14    1
    24    13    16    1
    25    13    26    1
    26    14    15    1
    27    14    27    1
    28    14    28    1
    29    15    16    1
    30    15    29    1
    31    15    30    1
    32    16    31    1
    33    16    32    1
@<TRIPOS>SUBSTRUCTURE
     1 LIG1        1 TEMP              0 ****  ****    0 ROOT


##########                                Name:      Z27065878.****
##########                        Cluster_Size:                   4
##########                          Grid_Score:          -38.326641
##########                     Grid_vdw_energy:          -33.134167
##########                      Grid_es_energy:           -5.192474
##########           Internal_energy_repulsive:            9.237508

@<TRIPOS>MOLECULE
Z27065878.****
 38 39 1 0 0
SMALL
USER_CHARGES
****

@<TRIPOS>ATOM
      1 C          15.3542  -31.3101  -11.4954 C.ar    1  LIG1       -0.1500
      2 C          14.8728  -32.5598  -11.8747 C.ar    1  LIG1       -0.1500
      3 C          15.2479  -33.7082  -11.1767 C.ar    1  LIG1       -0.1440
      4 C          16.1207  -33.5771  -10.0843 C.ar    1  LIG1        0.1170
      5 C          16.6043  -32.3271   -9.6933 C.ar    1  LIG1       -0.1500
      6 C          16.2185  -31.1947  -10.4062 C.ar    1  LIG1        0.1770
      7 CL         16.8050  -29.6335   -9.9371 Cl      1  LIG1       -0.1770
      8 C          14.7144  -35.0610  -11.6167 C.3     1  LIG1       -0.0960
      9 N          16.4722  -34.7479   -9.3641 N.am    1  LIG1       -0.5470
     10 C          17.5531  -35.5630   -9.5724 C.2     1  LIG1        0.5690
     11 C          17.6855  -36.7532   -8.6492 C.3     1  LIG1       -0.0990
     12 O          18.3314  -35.3568  -10.4784 O.2     1  LIG1       -0.5700
     13 C          18.3397  -37.8875   -9.4743 C.3     1  LIG1       -0.1600
     14 C          17.3542  -38.3015  -10.5806 C.3     1  LIG1       -0.0800
     15 C          17.8597  -39.3998  -11.5192 C.3     1  LIG1       -0.1600
     16 C          16.5924  -39.9809  -12.1548 C.3     1  LIG1       -0.1600
     17 C          15.4395  -39.6111  -11.2150 C.3     1  LIG1       -0.1600
     18 C          16.0959  -38.9478  -10.0037 C.3     1  LIG1       -0.1600
     19 H          15.0691  -30.4398  -12.0292 H       1  LIG1        0.1500
     20 H          14.2171  -32.6332  -12.7045 H       1  LIG1        0.1500
     21 H          17.2519  -32.2269   -8.8639 H       1  LIG1        0.1500
     22 H          14.0677  -35.4501  -10.8297 H       1  LIG1        0.0800
     23 H          14.1443  -34.9443  -12.5388 H       1  LIG1        0.0800
     24 H          15.5610  -35.7253  -11.7939 H       1  LIG1        0.0800
     25 H          15.8104  -35.0604   -8.6469 H       1  LIG1        0.3700
     26 H          16.7022  -37.0497   -8.3170 H       1  LIG1        0.0800
     27 H          18.3429  -36.4744   -7.8370 H       1  LIG1        0.0800
     28 H          18.5315  -38.7430   -8.8214 H       1  LIG1        0.0800
     29 H          19.2818  -37.5569   -9.9136 H       1  LIG1        0.0800
     30 H          17.0601  -37.4264  -11.1670 H       1  LIG1        0.0800
     31 H          18.3628  -40.1793  -10.9439 H       1  LIG1        0.0800
     32 H          18.5317  -39.0026  -12.2815 H       1  LIG1        0.0800
     33 H          16.6803  -41.0634  -12.2585 H       1  LIG1        0.0800
     34 H          16.4240  -39.5303  -13.1346 H       1  LIG1        0.0800
     35 H          14.8699  -40.4932  -10.9170 H       1  LIG1        0.0800
     36 H          14.7803  -38.8970  -11.7112 H       1  LIG1        0.0800
     37 H          15.4357  -38.2081   -9.5473 H       1  LIG1        0.0800
     38 H          16.3661  -39.7113   -9.2707 H       1  LIG1        0.0800
@<TRIPOS>BOND
     1     1     2   ar
     2     1     6   ar
     3     1    19    1
     4     2     3   ar
     5     2    20    1
     6     3     4   ar
     7     3     8    1
     8     4     5   ar
     9     4     9    1
    10     5     6   ar
    11     5    21    1
    12     6     7    1
    13     8    22    1
    14     8    23    1
    15     8    24    1
    16     9    10   am
    17     9    25    1
    18    10    11    1
    19    10    12    2
    20    11    13    1
    21    11    26    1
    22    11    27    1
    23    13    14    1
    24    13    28    1
    25    13    29    1
    26    14    15    1
    27    14    18    1
    28    14    30    1
    29    15    16    1
    30    15    31    1
    31    15    32    1
    32    16    17    1
    33    16    33    1
    34    16    34    1
    35    17    18    1
    36    17    35    1
    37    17    36    1
    38    18    37    1
    39    18    38    1
@<TRIPOS>SUBSTRUCTURE
     1 LIG1        1 TEMP              0 ****  ****    0 ROOT


##########                                Name:      Z27065878.****
##########                        Cluster_Size:                   3
##########                          Grid_Score:          -36.101585
##########                     Grid_vdw_energy:          -30.467028
##########                      Grid_es_energy:           -5.634556
##########           Internal_energy_repulsive:            6.519914

@<TRIPOS>MOLECULE
Z27065878.****
 38 39 1 0 0
SMALL
USER_CHARGES
****

@<TRIPOS>ATOM
      1 C          16.8257  -41.3505  -11.4724 C.ar    1  LIG1       -0.1500
      2 C          17.8913  -40.7036  -10.8531 C.ar    1  LIG1       -0.1500
      3 C          17.7168  -39.4521  -10.2617 C.ar    1  LIG1       -0.1440
      4 C          16.4445  -38.8588  -10.3043 C.ar    1  LIG1        0.1170
      5 C          15.3686  -39.5025  -10.9187 C.ar    1  LIG1       -0.1500
      6 C          15.5666  -40.7503  -11.5048 C.ar    1  LIG1        0.1770
      7 CL         14.2451  -41.5677  -12.2707 Cl      1  LIG1       -0.1770
      8 C          18.8985  -38.7642   -9.5994 C.3     1  LIG1       -0.0960
      9 N          16.2718  -37.5993   -9.6744 N.am    1  LIG1       -0.5470
     10 C          16.0636  -36.3867  -10.2762 C.2     1  LIG1        0.5690
     11 C          15.9116  -35.1965   -9.3559 C.3     1  LIG1       -0.0990
     12 O          16.0474  -36.2776  -11.4832 O.2     1  LIG1       -0.5700
     13 C          14.8782  -34.2516  -10.0149 C.3     1  LIG1       -0.1600
     14 C          15.6314  -33.0240  -10.5552 C.3     1  LIG1       -0.0800
     15 C          14.7616  -32.0067  -11.2978 C.3     1  LIG1       -0.1600
     16 C          15.5748  -30.7085  -11.2722 C.3     1  LIG1       -0.1600
     17 C          16.5670  -30.8531  -10.1130 C.3     1  LIG1       -0.1600
     18 C          16.2036  -32.1697   -9.4254 C.3     1  LIG1       -0.1600
     19 H          16.9622  -42.3002  -11.9229 H       1  LIG1        0.1500
     20 H          18.8428  -41.1708  -10.8363 H       1  LIG1        0.1500
     21 H          14.4083  -39.0614  -10.9406 H       1  LIG1        0.1500
     22 H          18.7028  -38.6952   -8.5289 H       1  LIG1        0.0800
     23 H          19.8027  -39.3486   -9.7723 H       1  LIG1        0.0800
     24 H          19.0147  -37.7743  -10.0422 H       1  LIG1        0.0800
     25 H          16.3787  -37.5784   -8.6555 H       1  LIG1        0.3700
     26 H          16.8666  -34.7020   -9.2626 H       1  LIG1        0.0800
     27 H          15.5226  -35.5522   -8.4115 H       1  LIG1        0.0800
     28 H          14.1535  -33.9297   -9.2624 H       1  LIG1        0.0800
     29 H          14.3497  -34.7559  -10.8250 H       1  LIG1        0.0800
     30 H          16.4532  -33.3435  -11.2023 H       1  LIG1        0.0800
     31 H          13.8244  -31.8541  -10.7592 H       1  LIG1        0.0800
     32 H          14.5588  -32.3201  -12.3231 H       1  LIG1        0.0800
     33 H          14.9182  -29.8506  -11.1199 H       1  LIG1        0.0800
     34 H          16.1222  -30.5905  -12.2091 H       1  LIG1        0.0800
     35 H          16.4923  -30.0151   -9.4177 H       1  LIG1        0.0800
     36 H          17.5823  -30.9145  -10.5085 H       1  LIG1        0.0800
     37 H          17.0787  -32.6369   -8.9702 H       1  LIG1        0.0800
     38 H          15.4395  -31.9868   -8.6665 H       1  LIG1        0.0800
@<TRIPOS>BOND
     1     1     2   ar
     2     1     6   ar
     3     1    19    1
     4     2     3   ar
     5     2    20    1
     6     3     4   ar
     7     3     8    1
     8     4     5   ar
     9     4     9    1
    10     5     6   ar
    11     5    21    1
    12     6     7    1
    13     8    22    1
    14     8    23    1
    15     8    24    1
    16     9    10   am
    17     9    25    1
    18    10    11    1
    19    10    12    2
    20    11    13    1
    21    11    26    1
    22    11    27    1
    23    13    14    1
    24    13    28    1
    25    13    29    1
    26    14    15    1
    27    14    18    1
    28    14    30    1
    29    15    16    1
    30    15    31    1
    31    15    32    1
    32    16    17    1
    33    16    33    1
    34    16    34    1
    35    17    18    1
    36    17    35    1
    37    17    36    1
    38    18    37    1
    39    18    38    1
@<TRIPOS>SUBSTRUCTURE
     1 LIG1        1 TEMP              0 ****  ****    0 ROOT


##########                                Name:      Z27065878.****
##########                        Cluster_Size:                   2
##########                          Grid_Score:          -35.531944
##########                     Grid_vdw_energy:          -30.693487
##########                      Grid_es_energy:           -4.838457
##########           Internal_energy_repulsive:           10.658492

@<TRIPOS>MOLECULE
Z27065878.****
 38 39 1 0 0
SMALL
USER_CHARGES
****

@<TRIPOS>ATOM
      1 C          15.2664  -33.5729  -13.4398 C.ar    1  LIG1       -0.1500
      2 C          14.8837  -33.2123  -12.1511 C.ar    1  LIG1       -0.1500
      3 C          15.3337  -33.9365  -11.0468 C.ar    1  LIG1       -0.1440
      4 C          16.1802  -35.0363  -11.2622 C.ar    1  LIG1        0.1170
      5 C          16.5735  -35.4022  -12.5509 C.ar    1  LIG1       -0.1500
      6 C          16.1101  -34.6663  -13.6387 C.ar    1  LIG1        0.1770
      7 CL         16.5873  -35.1014  -15.2462 Cl      1  LIG1       -0.1770
      8 C          14.8943  -33.5265   -9.6514 C.3     1  LIG1       -0.0960
      9 N          16.6549  -35.7476  -10.1302 N.am    1  LIG1       -0.5470
     10 C          17.9530  -36.0600   -9.8247 C.2     1  LIG1        0.5690
     11 C          18.1753  -36.8324   -8.5439 C.3     1  LIG1       -0.0990
     12 O          18.8629  -35.7665  -10.5698 O.2     1  LIG1       -0.5700
     13 C          19.3304  -37.8258   -8.8164 C.3     1  LIG1       -0.1600
     14 C          18.7246  -39.1111   -9.4057 C.3     1  LIG1       -0.0800
     15 C          17.9604  -38.9230  -10.7185 C.3     1  LIG1       -0.1600
     16 C          17.9157  -40.3204  -11.3454 C.3     1  LIG1       -0.1600
     17 C          19.0581  -41.1114  -10.6984 C.3     1  LIG1       -0.1600
     18 C          19.8062  -40.1065   -9.8216 C.3     1  LIG1       -0.1600
     19 H          14.9209  -33.0220  -14.2769 H       1  LIG1        0.1500
     20 H          14.2418  -32.3798  -12.0144 H       1  LIG1        0.1500
     21 H          17.2200  -36.2227  -12.7125 H       1  LIG1        0.1500
     22 H          15.7701  -33.1826   -9.1002 H       1  LIG1        0.0800
     23 H          14.1633  -32.7207   -9.7227 H       1  LIG1        0.0800
     24 H          14.4381  -34.3897   -9.1651 H       1  LIG1        0.0800
     25 H          15.9443  -36.1300   -9.4986 H       1  LIG1        0.3700
     26 H          17.2709  -37.3670   -8.2961 H       1  LIG1        0.0800
     27 H          18.4778  -36.1304   -7.7788 H       1  LIG1        0.0800
     28 H          19.8327  -38.0609   -7.8744 H       1  LIG1        0.0800
     29 H          20.0563  -37.3992   -9.5099 H       1  LIG1        0.0800
     30 H          18.0733  -39.5903   -8.6692 H       1  LIG1        0.0800
     31 H          18.5125  -38.2510  -11.3782 H       1  LIG1        0.0800
     32 H          16.9533  -38.5391  -10.5487 H       1  LIG1        0.0800
     33 H          18.0473  -40.2572  -12.4266 H       1  LIG1        0.0800
     34 H          16.9631  -40.8027  -11.1187 H       1  LIG1        0.0800
     35 H          19.7203  -41.5427  -11.4513 H       1  LIG1        0.0800
     36 H          18.6435  -41.9048  -10.0743 H       1  LIG1        0.0800
     37 H          20.2609  -40.5927   -8.9567 H       1  LIG1        0.0800
     38 H          20.5734  -39.6040  -10.4150 H       1  LIG1        0.0800
@<TRIPOS>BOND
     1     1     2   ar
     2     1     6   ar
     3     1    19    1
     4     2     3   ar
     5     2    20    1
     6     3     4   ar
     7     3     8    1
     8     4     5   ar
     9     4     9    1
    10     5     6   ar
    11     5    21    1
    12     6     7    1
    13     8    22    1
    14     8    23    1
    15     8    24    1
    16     9    10   am
    17     9    25    1
    18    10    11    1
    19    10    12    2
    20    11    13    1
    21    11    26    1
    22    11    27    1
    23    13    14    1
    24    13    28    1
    25    13    29    1
    26    14    15    1
    27    14    18    1
    28    14    30    1
    29    15    16    1
    30    15    31    1
    31    15    32    1
    32    16    17    1
    33    16    33    1
    34    16    34    1
    35    17    18    1
    36    17    35    1
    37    17    36    1
    38    18    37    1
    39    18    38    1
@<TRIPOS>SUBSTRUCTURE
     1 LIG1        1 TEMP              0 ****  ****    0 ROOT


##########                                Name:      Z27065878.****
##########                        Cluster_Size:                   1
##########                          Grid_Score:          -33.469944
##########                     Grid_vdw_energy:          -28.005379
##########                      Grid_es_energy:           -5.464566
##########           Internal_energy_repulsive:           14.093921

@<TRIPOS>MOLECULE
Z27065878.****
 38 39 1 0 0
SMALL
USER_CHARGES
****

@<TRIPOS>ATOM
      1 C          19.1891  -41.6166  -11.2615 C.ar    1  LIG1       -0.1500
      2 C          18.3535  -40.7497  -11.9597 C.ar    1  LIG1       -0.1500
      3 C          17.7605  -39.6622  -11.3176 C.ar    1  LIG1       -0.1440
      4 C          18.0239  -39.4606   -9.9529 C.ar    1  LIG1        0.1170
      5 C          18.8648  -40.3220   -9.2456 C.ar    1  LIG1       -0.1500
      6 C          19.4439  -41.4025   -9.9066 C.ar    1  LIG1        0.1770
      7 CL         20.4923  -42.4826   -9.0488 Cl      1  LIG1       -0.1770
      8 C          16.8460  -38.7359  -12.1012 C.3     1  LIG1       -0.0960
      9 N          17.4388  -38.3352   -9.3172 N.am    1  LIG1       -0.5470
     10 C          17.6159  -37.0138   -9.6307 C.2     1  LIG1        0.5690
     11 C          16.8638  -36.0144   -8.7810 C.3     1  LIG1       -0.0990
     12 O          18.3712  -36.6726  -10.5152 O.2     1  LIG1       -0.5700
     13 C          15.4977  -35.7812   -9.4700 C.3     1  LIG1       -0.1600
     14 C          15.7370  -34.9243  -10.7250 C.3     1  LIG1       -0.0800
     15 C          14.5172  -34.7537  -11.6338 C.3     1  LIG1       -0.1600
     16 C          14.8285  -33.5096  -12.4720 C.3     1  LIG1       -0.1600
     17 C          15.8894  -32.7269  -11.6903 C.3     1  LIG1       -0.1600
     18 C          16.0561  -33.4740  -10.3665 C.3     1  LIG1       -0.1600
     19 H          19.6362  -42.4432  -11.7518 H       1  LIG1        0.1500
     20 H          18.1679  -40.9244  -12.9888 H       1  LIG1        0.1500
     21 H          19.0725  -40.1637   -8.2214 H       1  LIG1        0.1500
     22 H          17.3156  -37.7533  -12.1579 H       1  LIG1        0.0800
     23 H          16.7003  -39.1338  -13.1059 H       1  LIG1        0.0800
     24 H          15.8852  -38.6832  -11.5877 H       1  LIG1        0.0800
     25 H          16.8684  -38.5235   -8.4869 H       1  LIG1        0.3700
     26 H          17.4267  -35.0941   -8.7422 H       1  LIG1        0.0800
     27 H          16.7044  -36.4570   -7.8072 H       1  LIG1        0.0800
     28 H          14.8362  -35.2440   -8.7853 H       1  LIG1        0.0800
     29 H          15.0323  -36.7289   -9.7441 H       1  LIG1        0.0800
     30 H          16.5700  -35.3325  -11.3042 H       1  LIG1        0.0800
     31 H          13.6265  -34.5670  -11.0310 H       1  LIG1        0.0800
     32 H          14.3631  -35.6255  -12.2716 H       1  LIG1        0.0800
     33 H          13.9274  -32.9112  -12.6146 H       1  LIG1        0.0800
     34 H          15.2323  -33.8029  -13.4427 H       1  LIG1        0.0800
     35 H          15.5782  -31.6947  -11.5203 H       1  LIG1        0.0800
     36 H          16.8317  -32.7420  -12.2405 H       1  LIG1        0.0800
     37 H          17.0691  -33.3692   -9.9741 H       1  LIG1        0.0800
     38 H          15.3324  -33.0968   -9.6404 H       1  LIG1        0.0800
@<TRIPOS>BOND
     1     1     2   ar
     2     1     6   ar
     3     1    19    1
     4     2     3   ar
     5     2    20    1
     6     3     4   ar
     7     3     8    1
     8     4     5   ar
     9     4     9    1
    10     5     6   ar
    11     5    21    1
    12     6     7    1
    13     8    22    1
    14     8    23    1
    15     8    24    1
    16     9    10   am
    17     9    25    1
    18    10    11    1
    19    10    12    2
    20    11    13    1
    21    11    26    1
    22    11    27    1
    23    13    14    1
    24    13    28    1
    25    13    29    1
    26    14    15    1
    27    14    18    1
    28    14    30    1
    29    15    16    1
    30    15    31    1
    31    15    32    1
    32    16    17    1
    33    16    33    1
    34    16    34    1
    35    17    18    1
    36    17    35    1
    37    17    36    1
    38    18    37    1
    39    18    38    1
@<TRIPOS>SUBSTRUCTURE
     1 LIG1        1 TEMP              0 ****  ****    0 ROOT


##########                                Name:     Z410195728.****
##########                        Cluster_Size:                   9
##########                          Grid_Score:          -40.168575
##########                     Grid_vdw_energy:          -33.493507
##########                      Grid_es_energy:           -6.675067
##########           Internal_energy_repulsive:            6.939802

@<TRIPOS>MOLECULE
Z410195728.****
 37 38 1 0 0
SMALL
USER_CHARGES
****

@<TRIPOS>ATOM
      1 C          15.0466  -31.7527  -11.3326 C.ar    1  LIG1       -0.1500
      2 C          14.5888  -33.0542  -11.5224 C.ar    1  LIG1       -0.1500
      3 C          15.1099  -34.1084  -10.7719 C.ar    1  LIG1       -0.1440
      4 C          16.1057  -33.8316   -9.8210 C.ar    1  LIG1        0.1170
      5 C          16.5737  -32.5303   -9.6276 C.ar    1  LIG1       -0.1500
      6 C          16.0383  -31.4940  -10.3854 C.ar    1  LIG1        0.1770
      7 CL         16.6074  -29.8719  -10.1621 Cl      1  LIG1       -0.1770
      8 C          14.5868  -35.5176  -10.9957 C.3     1  LIG1       -0.0960
      9 N          16.6520  -34.9102   -9.0827 N.am    1  LIG1       -0.5470
     10 C          17.7035  -35.6956   -9.4506 C.2     1  LIG1        0.6900
     11 N          17.9924  -36.6484   -8.5302 N.am    1  LIG1       -0.7300
     12 O          18.3318  -35.5632  -10.4913 O.2     1  LIG1       -0.5700
     13 C          19.0873  -37.6031   -8.7235 C.3     1  LIG1        0.1400
     14 C          18.4708  -38.8382   -9.4003 C.3     1  LIG1       -0.0800
     15 C          17.8093  -38.5613  -10.7547 C.3     1  LIG1       -0.1600
     16 C          17.7587  -39.9206  -11.4587 C.3     1  LIG1       -0.1600
     17 C          18.7739  -40.8116  -10.7332 C.3     1  LIG1       -0.1600
     18 C          19.5229  -39.8809   -9.7800 C.3     1  LIG1       -0.1600
     19 H          14.6477  -30.9547  -11.9023 H       1  LIG1        0.1500
     20 H          13.8354  -33.2373  -12.2453 H       1  LIG1        0.1500
     21 H          17.3318  -32.3229   -8.9185 H       1  LIG1        0.1500
     22 H          14.2404  -35.9117  -10.0395 H       1  LIG1        0.0800
     23 H          13.7548  -35.4886  -11.6999 H       1  LIG1        0.0800
     24 H          15.3950  -36.1250  -11.4012 H       1  LIG1        0.0800
     25 H          16.3141  -35.0467   -8.1294 H       1  LIG1        0.3700
     26 H          17.2763  -36.8779   -7.8368 H       1  LIG1        0.3700
     27 H          19.5089  -37.8847   -7.7572 H       1  LIG1        0.0800
     28 H          19.8818  -37.1876   -9.3486 H       1  LIG1        0.0800
     29 H          17.7425  -39.3006   -8.7301 H       1  LIG1        0.0800
     30 H          18.4316  -37.8745  -11.3337 H       1  LIG1        0.0800
     31 H          16.8126  -38.1362  -10.6345 H       1  LIG1        0.0800
     32 H          18.0227  -39.8079  -12.5116 H       1  LIG1        0.0800
     33 H          16.7602  -40.3539  -11.3737 H       1  LIG1        0.0800
     34 H          19.4603  -41.2880  -11.4360 H       1  LIG1        0.0800
     35 H          18.2442  -41.5739  -10.1598 H       1  LIG1        0.0800
     36 H          19.8937  -40.4185   -8.9056 H       1  LIG1        0.0800
     37 H          20.3497  -39.4019  -10.3091 H       1  LIG1        0.0800
@<TRIPOS>BOND
     1     1     2   ar
     2     1     6   ar
     3     1    19    1
     4     2     3   ar
     5     2    20    1
     6     3     4   ar
     7     3     8    1
     8     4     5   ar
     9     4     9    1
    10     5     6   ar
    11     5    21    1
    12     6     7    1
    13     8    22    1
    14     8    23    1
    15     8    24    1
    16     9    10   am
    17     9    25    1
    18    10    11   am
    19    10    12    2
    20    11    13    1
    21    11    26    1
    22    13    14    1
    23    13    27    1
    24    13    28    1
    25    14    15    1
    26    14    18    1
    27    14    29    1
    28    15    16    1
    29    15    30    1
    30    15    31    1
    31    16    17    1
    32    16    32    1
    33    16    33    1
    34    17    18    1
    35    17    34    1
    36    17    35    1
    37    18    36    1
    38    18    37    1
@<TRIPOS>SUBSTRUCTURE
     1 LIG1        1 TEMP              0 ****  ****    0 ROOT


##########                                Name:     Z410195728.****
##########                        Cluster_Size:                   1
##########                          Grid_Score:          -35.877640
##########                     Grid_vdw_energy:          -31.439352
##########                      Grid_es_energy:           -4.438286
##########           Internal_energy_repulsive:            3.860460

@<TRIPOS>MOLECULE
Z410195728.****
 37 38 1 0 0
SMALL
USER_CHARGES
****

@<TRIPOS>ATOM
      1 C          18.2133  -41.0001   -9.9525 C.ar    1  LIG1       -0.1500
      2 C          19.0843  -39.9468   -9.6853 C.ar    1  LIG1       -0.1500
      3 C          18.6004  -38.6499   -9.5116 C.ar    1  LIG1       -0.1440
      4 C          17.2173  -38.4271   -9.6118 C.ar    1  LIG1        0.1170
      5 C          16.3376  -39.4768   -9.8840 C.ar    1  LIG1       -0.1500
      6 C          16.8417  -40.7623  -10.0513 C.ar    1  LIG1        0.1770
      7 CL         15.7664  -42.0785  -10.3922 Cl      1  LIG1       -0.1770
      8 C          19.5733  -37.5210   -9.2146 C.3     1  LIG1       -0.0960
      9 N          16.7348  -37.1034   -9.4637 N.am    1  LIG1       -0.5470
     10 C          15.9479  -36.4230  -10.3445 C.2     1  LIG1        0.6900
     11 N          15.6507  -35.1698   -9.9209 N.am    1  LIG1       -0.7300
     12 O          15.5411  -36.8820  -11.4023 O.2     1  LIG1       -0.5700
     13 C          14.8163  -34.2632  -10.7143 C.3     1  LIG1        0.1400
     14 C          15.6359  -32.9768  -10.9068 C.3     1  LIG1       -0.0800
     15 C          14.8863  -31.8409  -11.6113 C.3     1  LIG1       -0.1600
     16 C          15.6430  -30.5658  -11.2272 C.3     1  LIG1       -0.1600
     17 C          16.4743  -30.9230   -9.9893 C.3     1  LIG1       -0.1600
     18 C          16.0101  -32.3198   -9.5777 C.3     1  LIG1       -0.1600
     19 H          18.5834  -41.9834  -10.0817 H       1  LIG1        0.1500
     20 H          20.1239  -40.1408   -9.6131 H       1  LIG1        0.1500
     21 H          15.2962  -39.3073   -9.9701 H       1  LIG1        0.1500
     22 H          19.2571  -37.0275   -8.2946 H       1  LIG1        0.0800
     23 H          20.5752  -37.9304   -9.0817 H       1  LIG1        0.0800
     24 H          19.5643  -36.8279  -10.0550 H       1  LIG1        0.0800
     25 H          16.8822  -36.6470   -8.5629 H       1  LIG1        0.3700
     26 H          16.2333  -34.7614   -9.1860 H       1  LIG1        0.3700
     27 H          13.8965  -34.0362  -10.1728 H       1  LIG1        0.0800
     28 H          14.5583  -34.6948  -11.6849 H       1  LIG1        0.0800
     29 H          16.5516  -33.2023  -11.4583 H       1  LIG1        0.0800
     30 H          13.8631  -31.7852  -11.2314 H       1  LIG1        0.0800
     31 H          14.8662  -31.9835  -12.6920 H       1  LIG1        0.0800
     32 H          14.9376  -29.7637  -11.0038 H       1  LIG1        0.0800
     33 H          16.3044  -30.2589  -12.0399 H       1  LIG1        0.0800
     34 H          16.3173  -30.2041   -9.1827 H       1  LIG1        0.0800
     35 H          17.5315  -30.9526  -10.2575 H       1  LIG1        0.0800
     36 H          16.8013  -32.8685   -9.0637 H       1  LIG1        0.0800
     37 H          15.1278  -32.2397   -8.9389 H       1  LIG1        0.0800
@<TRIPOS>BOND
     1     1     2   ar
     2     1     6   ar
     3     1    19    1
     4     2     3   ar
     5     2    20    1
     6     3     4   ar
     7     3     8    1
     8     4     5   ar
     9     4     9    1
    10     5     6   ar
    11     5    21    1
    12     6     7    1
    13     8    22    1
    14     8    23    1
    15     8    24    1
    16     9    10   am
    17     9    25    1
    18    10    11   am
    19    10    12    2
    20    11    13    1
    21    11    26    1
    22    13    14    1
    23    13    27    1
    24    13    28    1
    25    14    15    1
    26    14    18    1
    27    14    29    1
    28    15    16    1
    29    15    30    1
    30    15    31    1
    31    16    17    1
    32    16    32    1
    33    16    33    1
    34    17    18    1
    35    17    34    1
    36    17    35    1
    37    18    36    1
    38    18    37    1
@<TRIPOS>SUBSTRUCTURE
     1 LIG1        1 TEMP              0 ****  ****    0 ROOT


##########                                Name:             G10.sdf
##########                        Cluster_Size:                   4
##########                          Grid_Score:          -42.215698
##########                     Grid_vdw_energy:          -39.823452
##########                      Grid_es_energy:           -2.392245
##########           Internal_energy_repulsive:           43.715466

@<TRIPOS>MOLECULE
G10.sdf
 63 65 1 0 0
SMALL
USER_CHARGES
****

@<TRIPOS>ATOM
      1 C          25.5784  -43.0985   -9.2754 C.ar    1  LIG1       -0.1500
      2 C          24.6333  -44.0308   -8.8552 C.ar    1  LIG1       -0.1500
      3 C          23.2763  -43.7943   -9.0592 C.ar    1  LIG1       -0.1500
      4 C          22.8707  -42.6163   -9.6955 C.ar    1  LIG1        0.1170
      5 C          23.8076  -41.6738  -10.1140 C.ar    1  LIG1       -0.1500
      6 C          25.1627  -41.9202   -9.9029 C.ar    1  LIG1        0.1770
      7 CL         26.3400  -40.7605  -10.4197 Cl      1  LIG1       -0.1770
      8 N          21.5039  -42.3152   -9.9091 N.am    1  LIG1       -0.5470
      9 C          20.9806  -41.1943  -10.5212 C.2     1  LIG1        0.7150
     10 C          19.5335  -41.1018  -10.6280 C.ar    1  LIG1       -0.0450
     11 O          21.7479  -40.3293  -10.9237 O.2     1  LIG1       -0.5700
     12 C          18.5684  -41.9779  -10.1629 C.ar    1  LIG1       -0.1500
     13 C          17.2655  -41.5668  -10.4416 C.ar    1  LIG1       -0.1500
     14 C          17.2036  -40.3669  -11.1257 C.ar    1  LIG1       -0.0450
     15 S          18.7945  -39.7548  -11.4283 S.2     1  LIG1       -0.0800
     16 C          16.0277  -39.6372  -11.5707 C.2     1  LIG1        0.7150
     17 N          16.2041  -38.5130  -12.3230 N.am    1  LIG1       -0.7300
     18 O          14.8706  -39.9731  -11.3322 O.2     1  LIG1       -0.5700
     19 C          15.0581  -37.7176  -12.8126 C.3     1  LIG1        0.2810
     20 C          14.5119  -38.3615  -14.1040 C.2     1  LIG1        0.5690
     21 C          15.5759  -36.2877  -13.1137 C.3     1  LIG1       -0.1600
     22 C          15.8609  -35.5135  -11.8035 C.3     1  LIG1       -0.0800
     23 C          14.5908  -35.1867  -10.9947 C.3     1  LIG1       -0.1600
     24 C          14.9339  -34.4939   -9.6599 C.3     1  LIG1       -0.1600
     25 C          16.2410  -33.6811   -9.6974 C.3     1  LIG1       -0.1600
     26 C          16.4765  -33.0926  -11.0926 C.3     1  LIG1       -0.1600
     27 C          16.5950  -34.1990  -12.1591 C.3     1  LIG1       -0.1600
     28 O          13.3150  -38.5463  -14.3106 O.2     1  LIG1       -0.5700
     29 N          15.4141  -38.6812  -15.0373 N.am    1  LIG1       -0.7300
     30 C          15.0891  -39.2976  -16.3227 C.3     1  LIG1        0.1400
     31 C          16.1754  -40.2935  -16.7277 C.3     1  LIG1        0.1200
     32 O          15.8691  -40.8234  -18.0105 O.3     1  LIG1       -0.5600
     33 C          16.8337  -41.7607  -18.4616 C.3     1  LIG1        0.0400
     34 H          26.6117  -43.2737   -9.1227 H       1  LIG1        0.1500
     35 H          24.9459  -44.9256   -8.3784 H       1  LIG1        0.1500
     36 H          22.5619  -44.5040   -8.7310 H       1  LIG1        0.1500
     37 H          23.5047  -40.7807  -10.5939 H       1  LIG1        0.1500
     38 H          20.8146  -42.9562   -9.5093 H       1  LIG1        0.3700
     39 H          18.7872  -42.8791   -9.6511 H       1  LIG1        0.1500
     40 H          16.4109  -42.1250  -10.1602 H       1  LIG1        0.1500
     41 H          17.0927  -38.4086  -12.8238 H       1  LIG1        0.3700
     42 H          14.2626  -37.6964  -12.0800 H       1  LIG1        0.0800
     43 H          14.8252  -35.7491  -13.6939 H       1  LIG1        0.0800
     44 H          16.4862  -36.3560  -13.7121 H       1  LIG1        0.0800
     45 H          16.5235  -36.1028  -11.1670 H       1  LIG1        0.0800
     46 H          14.0231  -36.0899  -10.7723 H       1  LIG1        0.0800
     47 H          13.9576  -34.5238  -11.5875 H       1  LIG1        0.0800
     48 H          15.0217  -35.2475   -8.8750 H       1  LIG1        0.0800
     49 H          14.1066  -33.8328   -9.3945 H       1  LIG1        0.0800
     50 H          17.0792  -34.3327   -9.4435 H       1  LIG1        0.0800
     51 H          16.1951  -32.8799   -8.9573 H       1  LIG1        0.0800
     52 H          17.3839  -32.4863  -11.0923 H       1  LIG1        0.0800
     53 H          15.6340  -32.4443  -11.3414 H       1  LIG1        0.0800
     54 H          17.6502  -34.4293  -12.3134 H       1  LIG1        0.0800
     55 H          16.2053  -33.7966  -13.0971 H       1  LIG1        0.0800
     56 H          16.3555  -38.3202  -14.9045 H       1  LIG1        0.3700
     57 H          15.0164  -38.5270  -17.0917 H       1  LIG1        0.0800
     58 H          14.1324  -39.8210  -16.2650 H       1  LIG1        0.0800
     59 H          16.2121  -41.0913  -15.9829 H       1  LIG1        0.0800
     60 H          17.1370  -39.7793  -16.7584 H       1  LIG1        0.0800
     61 H          16.5419  -42.1259  -19.4470 H       1  LIG1        0.0800
     62 H          17.8147  -41.2885  -18.5382 H       1  LIG1        0.0800
     63 H          16.8871  -42.6071  -17.7757 H       1  LIG1        0.0800
@<TRIPOS>BOND
     1     1     2   ar
     2     1     6   ar
     3     1    34    1
     4     2     3   ar
     5     2    35    1
     6     3     4   ar
     7     3    36    1
     8     4     5   ar
     9     4     8    1
    10     5     6   ar
    11     5    37    1
    12     6     7    1
    13     8     9   am
    14     8    38    1
    15     9    10    1
    16     9    11    2
    17    10    12   ar
    18    10    15   ar
    19    12    13   ar
    20    12    39    1
    21    13    14   ar
    22    13    40    1
    23    14    15   ar
    24    14    16    1
    25    16    17   am
    26    16    18    2
    27    17    19    1
    28    17    41    1
    29    19    20    1
    30    19    21    1
    31    19    42    1
    32    20    28    2
    33    20    29   am
    34    21    22    1
    35    21    43    1
    36    21    44    1
    37    22    23    1
    38    22    27    1
    39    22    45    1
    40    23    24    1
    41    23    46    1
    42    23    47    1
    43    24    25    1
    44    24    48    1
    45    24    49    1
    46    25    26    1
    47    25    50    1
    48    25    51    1
    49    26    27    1
    50    26    52    1
    51    26    53    1
    52    27    54    1
    53    27    55    1
    54    29    30    1
    55    29    56    1
    56    30    31    1
    57    30    57    1
    58    30    58    1
    59    31    32    1
    60    31    59    1
    61    31    60    1
    62    32    33    1
    63    33    61    1
    64    33    62    1
    65    33    63    1
@<TRIPOS>SUBSTRUCTURE
     1 LIG1        1 TEMP              0 ****  ****    0 ROOT


##########                                Name:             G10.sdf
##########                        Cluster_Size:                   3
##########                          Grid_Score:          -40.196041
##########                     Grid_vdw_energy:          -39.206257
##########                      Grid_es_energy:           -0.989783
##########           Internal_energy_repulsive:           45.132584

@<TRIPOS>MOLECULE
G10.sdf
 63 65 1 0 0
SMALL
USER_CHARGES
****

@<TRIPOS>ATOM
      1 C          27.6172  -41.0174  -12.1120 C.ar    1  LIG1       -0.1500
      2 C          27.4717  -39.7170  -12.5880 C.ar    1  LIG1       -0.1500
      3 C          26.2059  -39.1461  -12.6924 C.ar    1  LIG1       -0.1500
      4 C          25.0827  -39.8868  -12.3089 C.ar    1  LIG1        0.1170
      5 C          25.2165  -41.1910  -11.8375 C.ar    1  LIG1       -0.1500
      6 C          26.4879  -41.7528  -11.7391 C.ar    1  LIG1        0.1770
      7 CL         26.6717  -43.3714  -11.1524 Cl      1  LIG1       -0.1770
      8 N          23.7713  -39.3637  -12.4143 N.am    1  LIG1       -0.5470
      9 C          22.5909  -39.9917  -12.0723 C.2     1  LIG1        0.7150
     10 C          21.3551  -39.2515  -12.2700 C.ar    1  LIG1       -0.0450
     11 O          22.6350  -41.1372  -11.6423 O.2     1  LIG1       -0.5700
     12 C          21.1795  -37.9546  -12.7197 C.ar    1  LIG1       -0.1500
     13 C          19.8416  -37.5686  -12.7912 C.ar    1  LIG1       -0.1500
     14 C          18.9628  -38.5610  -12.3983 C.ar    1  LIG1       -0.0450
     15 S          19.8245  -39.9870  -11.9277 S.2     1  LIG1       -0.0800
     16 C          17.5105  -38.5193  -12.3524 C.2     1  LIG1        0.7150
     17 N          16.8708  -37.4537  -12.9146 N.am    1  LIG1       -0.7300
     18 O          16.8062  -39.3939  -11.8548 O.2     1  LIG1       -0.5700
     19 C          15.3968  -37.3398  -12.9077 C.3     1  LIG1        0.2810
     20 C          14.8161  -38.2383  -14.0196 C.2     1  LIG1        0.5690
     21 C          15.0410  -35.8570  -13.1874 C.3     1  LIG1       -0.1600
     22 C          15.4135  -34.9602  -11.9815 C.3     1  LIG1       -0.0800
     23 C          14.4881  -35.1522  -10.7645 C.3     1  LIG1       -0.1600
     24 C          14.9516  -34.3031   -9.5630 C.3     1  LIG1       -0.1600
     25 C          15.7033  -33.0193   -9.9599 C.3     1  LIG1       -0.1600
     26 C          15.1758  -32.4683  -11.2891 C.3     1  LIG1       -0.1600
     27 C          15.3648  -33.4819  -12.4348 C.3     1  LIG1       -0.1600
     28 O          14.0628  -39.1830  -13.7977 O.2     1  LIG1       -0.5700
     29 N          15.1384  -37.9140  -15.2759 N.am    1  LIG1       -0.7300
     30 C          14.6855  -38.6441  -16.4590 C.3     1  LIG1        0.1400
     31 C          15.7375  -39.6648  -16.8923 C.3     1  LIG1        0.1200
     32 O          15.9170  -40.6201  -15.8554 O.3     1  LIG1       -0.5600
     33 C          16.9134  -41.5821  -16.1620 C.3     1  LIG1        0.0400
     34 H          28.5777  -41.4562  -12.0306 H       1  LIG1        0.1500
     35 H          28.3268  -39.1570  -12.8721 H       1  LIG1        0.1500
     36 H          26.1011  -38.1590  -13.0619 H       1  LIG1        0.1500
     37 H          24.3693  -41.7552  -11.5483 H       1  LIG1        0.1500
     38 H          23.6663  -38.4471  -12.8556 H       1  LIG1        0.3700
     39 H          21.9767  -37.3073  -12.9794 H       1  LIG1        0.1500
     40 H          19.5340  -36.6069  -13.1100 H       1  LIG1        0.1500
     41 H          17.3775  -36.9124  -13.6227 H       1  LIG1        0.3700
     42 H          14.9895  -37.6649  -11.9599 H       1  LIG1        0.0800
     43 H          13.9702  -35.7752  -13.3795 H       1  LIG1        0.0800
     44 H          15.5748  -35.5235  -14.0791 H       1  LIG1        0.0800
     45 H          16.4354  -35.1778  -11.6655 H       1  LIG1        0.0800
     46 H          14.4606  -36.1958  -10.4523 H       1  LIG1        0.0800
     47 H          13.4756  -34.8531  -11.0423 H       1  LIG1        0.0800
     48 H          15.6088  -34.9028   -8.9303 H       1  LIG1        0.0800
     49 H          14.0731  -34.0375   -8.9719 H       1  LIG1        0.0800
     50 H          16.7665  -33.2415  -10.0674 H       1  LIG1        0.0800
     51 H          15.5888  -32.2704   -9.1739 H       1  LIG1        0.0800
     52 H          15.6892  -31.5376  -11.5359 H       1  LIG1        0.0800
     53 H          14.1120  -32.2506  -11.1757 H       1  LIG1        0.0800
     54 H          16.2955  -33.2551  -12.9570 H       1  LIG1        0.0800
     55 H          14.5459  -33.3362  -13.1432 H       1  LIG1        0.0800
     56 H          15.5871  -37.0118  -15.4135 H       1  LIG1        0.3700
     57 H          14.5170  -37.9454  -17.2798 H       1  LIG1        0.0800
     58 H          13.7495  -39.1669  -16.2509 H       1  LIG1        0.0800
     59 H          16.6727  -39.1376  -17.0930 H       1  LIG1        0.0800
     60 H          15.3978  -40.1629  -17.8014 H       1  LIG1        0.0800
     61 H          16.9999  -42.2829  -15.3308 H       1  LIG1        0.0800
     62 H          16.6414  -42.1364  -17.0621 H       1  LIG1        0.0800
     63 H          17.8772  -41.0932  -16.3102 H       1  LIG1        0.0800
@<TRIPOS>BOND
     1     1     2   ar
     2     1     6   ar
     3     1    34    1
     4     2     3   ar
     5     2    35    1
     6     3     4   ar
     7     3    36    1
     8     4     5   ar
     9     4     8    1
    10     5     6   ar
    11     5    37    1
    12     6     7    1
    13     8     9   am
    14     8    38    1
    15     9    10    1
    16     9    11    2
    17    10    12   ar
    18    10    15   ar
    19    12    13   ar
    20    12    39    1
    21    13    14   ar
    22    13    40    1
    23    14    15   ar
    24    14    16    1
    25    16    17   am
    26    16    18    2
    27    17    19    1
    28    17    41    1
    29    19    20    1
    30    19    21    1
    31    19    42    1
    32    20    28    2
    33    20    29   am
    34    21    22    1
    35    21    43    1
    36    21    44    1
    37    22    23    1
    38    22    27    1
    39    22    45    1
    40    23    24    1
    41    23    46    1
    42    23    47    1
    43    24    25    1
    44    24    48    1
    45    24    49    1
    46    25    26    1
    47    25    50    1
    48    25    51    1
    49    26    27    1
    50    26    52    1
    51    26    53    1
    52    27    54    1
    53    27    55    1
    54    29    30    1
    55    29    56    1
    56    30    31    1
    57    30    57    1
    58    30    58    1
    59    31    32    1
    60    31    59    1
    61    31    60    1
    62    32    33    1
    63    33    61    1
    64    33    62    1
    65    33    63    1
@<TRIPOS>SUBSTRUCTURE
     1 LIG1        1 TEMP              0 ****  ****    0 ROOT


##########                                Name:             G10.sdf
##########                        Cluster_Size:                   3
##########                          Grid_Score:          -38.357246
##########                     Grid_vdw_energy:          -38.098286
##########                      Grid_es_energy:           -0.258962
##########           Internal_energy_repulsive:           14.756818

@<TRIPOS>MOLECULE
G10.sdf
 63 65 1 0 0
SMALL
USER_CHARGES
****

@<TRIPOS>ATOM
      1 C          15.2282  -32.6761  -11.0399 C.ar    1  LIG1       -0.1500
      2 C          15.8180  -32.9635   -9.8116 C.ar    1  LIG1       -0.1500
      3 C          16.5084  -34.1588   -9.6280 C.ar    1  LIG1       -0.1500
      4 C          16.6105  -35.0649  -10.6890 C.ar    1  LIG1        0.1170
      5 C          16.0187  -34.7902  -11.9199 C.ar    1  LIG1       -0.1500
      6 C          15.3286  -33.5919  -12.0917 C.ar    1  LIG1        0.1770
      7 CL         14.5899  -33.2338  -13.6162 Cl      1  LIG1       -0.1770
      8 N          17.2819  -36.3038  -10.5512 N.am    1  LIG1       -0.5470
      9 C          16.7257  -37.5244  -10.2263 C.2     1  LIG1        0.7150
     10 C          17.6195  -38.6681  -10.1417 C.ar    1  LIG1       -0.0450
     11 O          15.5227  -37.5849  -10.0067 O.2     1  LIG1       -0.5700
     12 C          17.3616  -39.9411   -9.6642 C.ar    1  LIG1       -0.1500
     13 C          18.4617  -40.7947   -9.7381 C.ar    1  LIG1       -0.1500
     14 C          19.5862  -40.1948  -10.2739 C.ar    1  LIG1       -0.0450
     15 S          19.2612  -38.5436  -10.6804 S.2     1  LIG1       -0.0800
     16 C          20.8981  -40.7753  -10.5087 C.2     1  LIG1        0.7150
     17 N          21.7501  -40.1372  -11.3617 N.am    1  LIG1       -0.7300
     18 O          21.3089  -41.8018   -9.9738 O.2     1  LIG1       -0.5700
     19 C          23.1004  -40.6654  -11.6511 C.3     1  LIG1        0.2810
     20 C          24.0517  -39.4860  -11.9424 C.2     1  LIG1        0.5690
     21 C          22.9886  -41.5749  -12.9016 C.3     1  LIG1       -0.1600
     22 C          24.3657  -42.1762  -13.2751 C.3     1  LIG1       -0.0800
     23 C          24.3202  -43.0921  -14.5133 C.3     1  LIG1       -0.1600
     24 C          25.7274  -43.5954  -14.8955 C.3     1  LIG1       -0.1600
     25 C          26.6975  -43.6981  -13.7043 C.3     1  LIG1       -0.1600
     26 C          25.9442  -44.0517  -12.4175 C.3     1  LIG1       -0.1600
     27 C          24.8970  -42.9777  -12.0633 C.3     1  LIG1       -0.1600
     28 O          25.2697  -39.5508  -11.7955 O.2     1  LIG1       -0.5700
     29 N          23.4885  -38.3702  -12.4168 N.am    1  LIG1       -0.7300
     30 C          24.2246  -37.1519  -12.7512 C.3     1  LIG1        0.1400
     31 C          24.3120  -36.2296  -11.5355 C.3     1  LIG1        0.1200
     32 O          25.0313  -35.0561  -11.8897 O.3     1  LIG1       -0.5600
     33 C          26.3530  -35.3329  -12.3244 C.3     1  LIG1        0.0400
     34 H          14.7021  -31.7683  -11.1847 H       1  LIG1        0.1500
     35 H          15.7429  -32.2706   -9.0117 H       1  LIG1        0.1500
     36 H          16.9487  -34.3748   -8.6893 H       1  LIG1        0.1500
     37 H          16.0920  -35.4739  -12.7242 H       1  LIG1        0.1500
     38 H          18.3015  -36.2958  -10.6298 H       1  LIG1        0.3700
     39 H          16.4261  -40.2456   -9.2717 H       1  LIG1        0.1500
     40 H          18.4353  -41.8009   -9.4093 H       1  LIG1        0.1500
     41 H          21.5920  -39.1394  -11.5363 H       1  LIG1        0.3700
     42 H          23.4889  -41.2150  -10.8044 H       1  LIG1        0.0800
     43 H          22.6132  -40.9870  -13.7404 H       1  LIG1        0.0800
     44 H          22.2749  -42.3754  -12.6985 H       1  LIG1        0.0800
     45 H          25.0739  -41.3706  -13.4775 H       1  LIG1        0.0800
     46 H          23.9011  -42.5702  -15.3733 H       1  LIG1        0.0800
     47 H          23.6830  -43.9505  -14.2923 H       1  LIG1        0.0800
     48 H          26.1630  -42.9203  -15.6346 H       1  LIG1        0.0800
     49 H          25.6251  -44.5771  -15.3620 H       1  LIG1        0.0800
     50 H          27.2022  -42.7402  -13.5656 H       1  LIG1        0.0800
     51 H          27.4550  -44.4558  -13.9136 H       1  LIG1        0.0800
     52 H          26.6494  -44.1611  -11.5918 H       1  LIG1        0.0800
     53 H          25.4400  -45.0089  -12.5636 H       1  LIG1        0.0800
     54 H          25.3384  -42.2736  -11.3564 H       1  LIG1        0.0800
     55 H          24.0691  -43.4783  -11.5558 H       1  LIG1        0.0800
     56 H          22.5183  -38.4393  -12.7135 H       1  LIG1        0.3700
     57 H          23.7124  -36.6225  -13.5560 H       1  LIG1        0.0800
     58 H          25.2357  -37.3951  -13.0846 H       1  LIG1        0.0800
     59 H          24.8216  -36.7623  -10.7298 H       1  LIG1        0.0800
     60 H          23.3032  -35.9645  -11.2159 H       1  LIG1        0.0800
     61 H          26.8484  -34.3950  -12.5781 H       1  LIG1        0.0800
     62 H          26.9180  -35.8253  -11.5309 H       1  LIG1        0.0800
     63 H          26.3336  -35.9698  -13.2097 H       1  LIG1        0.0800
@<TRIPOS>BOND
     1     1     2   ar
     2     1     6   ar
     3     1    34    1
     4     2     3   ar
     5     2    35    1
     6     3     4   ar
     7     3    36    1
     8     4     5   ar
     9     4     8    1
    10     5     6   ar
    11     5    37    1
    12     6     7    1
    13     8     9   am
    14     8    38    1
    15     9    10    1
    16     9    11    2
    17    10    12   ar
    18    10    15   ar
    19    12    13   ar
    20    12    39    1
    21    13    14   ar
    22    13    40    1
    23    14    15   ar
    24    14    16    1
    25    16    17   am
    26    16    18    2
    27    17    19    1
    28    17    41    1
    29    19    20    1
    30    19    21    1
    31    19    42    1
    32    20    28    2
    33    20    29   am
    34    21    22    1
    35    21    43    1
    36    21    44    1
    37    22    23    1
    38    22    27    1
    39    22    45    1
    40    23    24    1
    41    23    46    1
    42    23    47    1
    43    24    25    1
    44    24    48    1
    45    24    49    1
    46    25    26    1
    47    25    50    1
    48    25    51    1
    49    26    27    1
    50    26    52    1
    51    26    53    1
    52    27    54    1
    53    27    55    1
    54    29    30    1
    55    29    56    1
    56    30    31    1
    57    30    57    1
    58    30    58    1
    59    31    32    1
    60    31    59    1
    61    31    60    1
    62    32    33    1
    63    33    61    1
    64    33    62    1
    65    33    63    1
@<TRIPOS>SUBSTRUCTURE
     1 LIG1        1 TEMP              0 ****  ****    0 ROOT


##########                                Name:    Z1315931726.****
##########                        Cluster_Size:                   2
##########                          Grid_Score:          -42.981007
##########                     Grid_vdw_energy:          -34.049206
##########                      Grid_es_energy:           -8.931801
##########           Internal_energy_repulsive:           13.508757

@<TRIPOS>MOLECULE
Z1315931726.****
 37 38 1 0 0
SMALL
USER_CHARGES
****

@<TRIPOS>ATOM
      1 C          15.1944  -32.2594  -11.8720 C.ar    1  LIG1       -0.1500
      2 C          14.7401  -33.5749  -11.9359 C.ar    1  LIG1       -0.1500
      3 C          15.1560  -34.5182  -11.0005 C.ar    1  LIG1       -0.1440
      4 C          16.0366  -34.1094   -9.9928 C.ar    1  LIG1        0.1170
      5 C          16.4741  -32.7877   -9.9029 C.ar    1  LIG1       -0.1500
      6 C          16.0742  -31.8512  -10.8601 C.ar    1  LIG1       -0.1440
      7 C          16.5716  -30.4024  -10.7950 C.3     1  LIG1        1.1640
      8 F          15.5873  -29.5469  -11.1395 F       1  LIG1       -0.3400
      9 F          16.9906  -30.1005   -9.5519 F       1  LIG1       -0.3400
     10 F          17.5968  -30.2501  -11.6485 F       1  LIG1       -0.3400
     11 C          14.6591  -35.9510  -11.0953 C.3     1  LIG1       -0.0960
     12 N          16.4892  -35.0538   -9.0495 N.am    1  LIG1       -0.5470
     13 C          17.6949  -35.6976   -9.0485 C.2     1  LIG1        0.5690
     14 C          18.0959  -36.7154   -7.9699 C.3     1  LIG1        0.2700
     15 N          19.0705  -37.7021   -8.5299 N.pl3   1  LIG1       -0.8690
     16 C          18.6222  -38.5471   -9.5492 C.ar    1  LIG1        0.1000
     17 C          17.2526  -38.6111   -9.7939 C.ar    1  LIG1       -0.1500
     18 C          16.7810  -39.4053  -10.8353 C.ar    1  LIG1        0.1770
     19 C          17.6695  -40.1472  -11.6173 C.ar    1  LIG1       -0.1500
     20 C          19.0348  -40.0979  -11.3487 C.ar    1  LIG1       -0.1500
     21 C          19.5168  -39.3049  -10.3120 C.ar    1  LIG1       -0.1500
     22 CL         15.0822  -39.4637  -11.1728 Cl      1  LIG1       -0.1770
     23 O          18.4412  -35.3784   -9.9473 O.2     1  LIG1       -0.5700
     24 H          14.8674  -31.5657  -12.6057 H       1  LIG1        0.1500
     25 H          14.0739  -33.8543  -12.7122 H       1  LIG1        0.1500
     26 H          17.1098  -32.5021   -9.1051 H       1  LIG1        0.1500
     27 H          15.5212  -36.6169  -11.1413 H       1  LIG1        0.0800
     28 H          14.0554  -36.1631  -10.2138 H       1  LIG1        0.0800
     29 H          14.0555  -36.0682  -11.9952 H       1  LIG1        0.0800
     30 H          15.8325  -35.3880   -8.3320 H       1  LIG1        0.3700
     31 H          17.2012  -37.2395   -7.6627 H       1  LIG1        0.0800
     32 H          18.5489  -36.1659   -7.1573 H       1  LIG1        0.0800
     33 H          19.5367  -38.2273   -7.7718 H       1  LIG1        0.4000
     34 H          16.5752  -38.0525   -9.2058 H       1  LIG1        0.1500
     35 H          17.2976  -40.7458  -12.4090 H       1  LIG1        0.1500
     36 H          19.7100  -40.6685  -11.9348 H       1  LIG1        0.1500
     37 H          20.5536  -39.2805  -10.0969 H       1  LIG1        0.1500
@<TRIPOS>BOND
     1     1     2   ar
     2     1     6   ar
     3     1    24    1
     4     2     3   ar
     5     2    25    1
     6     3     4   ar
     7     3    11    1
     8     4     5   ar
     9     4    12    1
    10     5     6   ar
    11     5    26    1
    12     6     7    1
    13     7     8    1
    14     7     9    1
    15     7    10    1
    16    11    27    1
    17    11    28    1
    18    11    29    1
    19    12    13   am
    20    12    30    1
    21    13    14    1
    22    13    23    2
    23    14    15    1
    24    14    31    1
    25    14    32    1
    26    15    16    1
    27    15    33    1
    28    16    17   ar
    29    16    21   ar
    30    17    18   ar
    31    17    34    1
    32    18    19   ar
    33    18    22    1
    34    19    20   ar
    35    19    35    1
    36    20    21   ar
    37    20    36    1
    38    21    37    1
@<TRIPOS>SUBSTRUCTURE
     1 LIG1        1 TEMP              0 ****  ****    0 ROOT


##########                                Name:    Z1315931726.****
##########                        Cluster_Size:                   3
##########                          Grid_Score:          -39.237839
##########                     Grid_vdw_energy:          -30.228918
##########                      Grid_es_energy:           -9.008921
##########           Internal_energy_repulsive:            6.128071

@<TRIPOS>MOLECULE
Z1315931726.****
 37 38 1 0 0
SMALL
USER_CHARGES
****

@<TRIPOS>ATOM
      1 C          19.6694  -41.1212  -12.1174 C.ar    1  LIG1       -0.1500
      2 C          18.3206  -41.1116  -11.7683 C.ar    1  LIG1       -0.1500
      3 C          17.8257  -40.1765  -10.8638 C.ar    1  LIG1       -0.1440
      4 C          18.7162  -39.2442  -10.3198 C.ar    1  LIG1        0.1170
      5 C          20.0625  -39.2269  -10.6852 C.ar    1  LIG1       -0.1500
      6 C          20.5592  -40.1847  -11.5735 C.ar    1  LIG1       -0.1440
      7 C          22.0427  -40.2002  -11.9607 C.3     1  LIG1        1.1640
      8 F          22.5213  -38.9428  -12.0558 F       1  LIG1       -0.3400
      9 F          22.7651  -40.8690  -11.0426 F       1  LIG1       -0.3400
     10 F          22.1809  -40.8079  -13.1500 F       1  LIG1       -0.3400
     11 C          16.3539  -40.1911  -10.4863 C.3     1  LIG1       -0.0960
     12 N          18.2411  -38.3035   -9.3837 N.am    1  LIG1       -0.5470
     13 C          18.4011  -36.9470   -9.4322 C.2     1  LIG1        0.5690
     14 C          17.8424  -36.0025   -8.3572 C.3     1  LIG1        0.2700
     15 N          16.3472  -36.0069   -8.3945 N.pl3   1  LIG1       -0.8690
     16 C          15.7258  -35.4176   -9.4993 C.ar    1  LIG1        0.1000
     17 C          14.9298  -36.2220  -10.3111 C.ar    1  LIG1       -0.1500
     18 C          14.2582  -35.6523  -11.3892 C.ar    1  LIG1        0.1770
     19 C          14.3948  -34.2903  -11.6679 C.ar    1  LIG1       -0.1500
     20 C          15.2137  -33.4990  -10.8667 C.ar    1  LIG1       -0.1500
     21 C          15.8869  -34.0579   -9.7849 C.ar    1  LIG1       -0.1500
     22 CL         13.2355  -36.6360  -12.3840 Cl      1  LIG1       -0.1770
     23 O          18.9898  -36.5401  -10.4092 O.2     1  LIG1       -0.5700
     24 H          20.0187  -41.8532  -12.8020 H       1  LIG1        0.1500
     25 H          17.6709  -41.8318  -12.1970 H       1  LIG1        0.1500
     26 H          20.7019  -38.4834  -10.2845 H       1  LIG1        0.1500
     27 H          16.2727  -40.2736   -9.4021 H       1  LIG1        0.0800
     28 H          15.9012  -39.2644  -10.8368 H       1  LIG1        0.0800
     29 H          15.8656  -41.0439  -10.9576 H       1  LIG1        0.0800
     30 H          17.8120  -38.6464   -8.5143 H       1  LIG1        0.3700
     31 H          18.1973  -35.0051   -8.5783 H       1  LIG1        0.0800
     32 H          18.1912  -36.3589   -7.3986 H       1  LIG1        0.0800
     33 H          15.9574  -35.6591   -7.5028 H       1  LIG1        0.4000
     34 H          14.8225  -37.2531  -10.1058 H       1  LIG1        0.1500
     35 H          13.8758  -33.8686  -12.4901 H       1  LIG1        0.1500
     36 H          15.3268  -32.4667  -11.0829 H       1  LIG1        0.1500
     37 H          16.5231  -33.4595   -9.1857 H       1  LIG1        0.1500
@<TRIPOS>BOND
     1     1     2   ar
     2     1     6   ar
     3     1    24    1
     4     2     3   ar
     5     2    25    1
     6     3     4   ar
     7     3    11    1
     8     4     5   ar
     9     4    12    1
    10     5     6   ar
    11     5    26    1
    12     6     7    1
    13     7     8    1
    14     7     9    1
    15     7    10    1
    16    11    27    1
    17    11    28    1
    18    11    29    1
    19    12    13   am
    20    12    30    1
    21    13    14    1
    22    13    23    2
    23    14    15    1
    24    14    31    1
    25    14    32    1
    26    15    16    1
    27    15    33    1
    28    16    17   ar
    29    16    21   ar
    30    17    18   ar
    31    17    34    1
    32    18    19   ar
    33    18    22    1
    34    19    20   ar
    35    19    35    1
    36    20    21   ar
    37    20    36    1
    38    21    37    1
@<TRIPOS>SUBSTRUCTURE
     1 LIG1        1 TEMP              0 ****  ****    0 ROOT


##########                                Name:    Z1315931726.****
##########                        Cluster_Size:                   2
##########                          Grid_Score:          -37.842686
##########                     Grid_vdw_energy:          -33.635670
##########                      Grid_es_energy:           -4.207016
##########           Internal_energy_repulsive:           11.907232

@<TRIPOS>MOLECULE
Z1315931726.****
 37 38 1 0 0
SMALL
USER_CHARGES
****

@<TRIPOS>ATOM
      1 C          19.4837  -36.7265  -14.1830 C.ar    1  LIG1       -0.1500
      2 C          20.0793  -36.9998  -12.9535 C.ar    1  LIG1       -0.1500
      3 C          19.3645  -36.8545  -11.7680 C.ar    1  LIG1       -0.1440
      4 C          18.0325  -36.4328  -11.8441 C.ar    1  LIG1        0.1170
      5 C          17.4183  -36.1849  -13.0719 C.ar    1  LIG1       -0.1500
      6 C          18.1484  -36.3069  -14.2573 C.ar    1  LIG1       -0.1440
      7 C          17.4982  -36.0067  -15.6130 C.3     1  LIG1        1.1640
      8 F          16.9360  -37.1202  -16.1264 F       1  LIG1       -0.3400
      9 F          16.5471  -35.0630  -15.4839 F       1  LIG1       -0.3400
     10 F          18.4380  -35.5638  -16.4636 F       1  LIG1       -0.3400
     11 C          20.0363  -37.1452  -10.4364 C.3     1  LIG1       -0.0960
     12 N          17.2974  -36.2560  -10.6544 N.am    1  LIG1       -0.5470
     13 C          16.1616  -36.9215  -10.2867 C.2     1  LIG1        0.5690
     14 C          15.4309  -36.6550   -8.9619 C.3     1  LIG1        0.2700
     15 N          14.9503  -35.2395   -8.9146 N.pl3   1  LIG1       -0.8690
     16 C          14.7870  -34.5706  -10.1311 C.ar    1  LIG1        0.1000
     17 C          15.3013  -33.2814  -10.2456 C.ar    1  LIG1       -0.1500
     18 C          15.1981  -32.6100  -11.4606 C.ar    1  LIG1        0.1770
     19 C          14.5681  -33.2141  -12.5513 C.ar    1  LIG1       -0.1500
     20 C          14.0333  -34.4930  -12.4201 C.ar    1  LIG1       -0.1500
     21 C          14.1338  -35.1738  -11.2109 C.ar    1  LIG1       -0.1500
     22 CL         15.8674  -31.0200  -11.6256 Cl      1  LIG1       -0.1770
     23 O          15.7916  -37.7659  -11.0720 O.2     1  LIG1       -0.5700
     24 H          20.0578  -36.8368  -15.0689 H       1  LIG1        0.1500
     25 H          21.0910  -37.3168  -12.9286 H       1  LIG1        0.1500
     26 H          16.3970  -35.9044  -13.0967 H       1  LIG1        0.1500
     27 H          19.9486  -36.2632   -9.8014 H       1  LIG1        0.0800
     28 H          19.5372  -37.9992   -9.9802 H       1  LIG1        0.0800
     29 H          21.0886  -37.3757  -10.6021 H       1  LIG1        0.0800
     30 H          17.5591  -35.4879  -10.0226 H       1  LIG1        0.3700
     31 H          16.1371  -36.8143   -8.1584 H       1  LIG1        0.0800
     32 H          14.5920  -37.3342   -8.9114 H       1  LIG1        0.0800
     33 H          15.5070  -34.6858   -8.2427 H       1  LIG1        0.4000
     34 H          15.7789  -32.8188   -9.4242 H       1  LIG1        0.1500
     35 H          14.4986  -32.6930  -13.4716 H       1  LIG1        0.1500
     36 H          13.5454  -34.9492  -13.2441 H       1  LIG1        0.1500
     37 H          13.7121  -36.1398  -11.1061 H       1  LIG1        0.1500
@<TRIPOS>BOND
     1     1     2   ar
     2     1     6   ar
     3     1    24    1
     4     2     3   ar
     5     2    25    1
     6     3     4   ar
     7     3    11    1
     8     4     5   ar
     9     4    12    1
    10     5     6   ar
    11     5    26    1
    12     6     7    1
    13     7     8    1
    14     7     9    1
    15     7    10    1
    16    11    27    1
    17    11    28    1
    18    11    29    1
    19    12    13   am
    20    12    30    1
    21    13    14    1
    22    13    23    2
    23    14    15    1
    24    14    31    1
    25    14    32    1
    26    15    16    1
    27    15    33    1
    28    16    17   ar
    29    16    21   ar
    30    17    18   ar
    31    17    34    1
    32    18    19   ar
    33    18    22    1
    34    19    20   ar
    35    19    35    1
    36    20    21   ar
    37    20    36    1
    38    21    37    1
@<TRIPOS>SUBSTRUCTURE
     1 LIG1        1 TEMP              0 ****  ****    0 ROOT


##########                                Name:    Z1315931726.****
##########                        Cluster_Size:                   1
##########                          Grid_Score:          -37.661797
##########                     Grid_vdw_energy:          -34.371735
##########                      Grid_es_energy:           -3.290061
##########           Internal_energy_repulsive:            8.406512

@<TRIPOS>MOLECULE
Z1315931726.****
 37 38 1 0 0
SMALL
USER_CHARGES
****

@<TRIPOS>ATOM
      1 C          16.4508  -40.2278  -14.2971 C.ar    1  LIG1       -0.1500
      2 C          16.6116  -40.6431  -12.9769 C.ar    1  LIG1       -0.1500
      3 C          16.1577  -39.8558  -11.9225 C.ar    1  LIG1       -0.1440
      4 C          15.5317  -38.6410  -12.2233 C.ar    1  LIG1        0.1170
      5 C          15.3397  -38.2302  -13.5426 C.ar    1  LIG1       -0.1500
      6 C          15.8209  -39.0119  -14.5964 C.ar    1  LIG1       -0.1440
      7 C          15.6473  -38.5595  -16.0511 C.3     1  LIG1        1.1640
      8 F          16.3999  -39.3158  -16.8762 F       1  LIG1       -0.3400
      9 F          14.3590  -38.6600  -16.4281 F       1  LIG1       -0.3400
     10 F          16.0347  -37.2788  -16.1629 F       1  LIG1       -0.3400
     11 C          16.3544  -40.3206  -10.4892 C.3     1  LIG1       -0.0960
     12 N          15.0860  -37.8171  -11.1701 N.am    1  LIG1       -0.5470
     13 C          15.7948  -36.8281  -10.5474 C.2     1  LIG1        0.5690
     14 C          15.2165  -35.9816   -9.4033 C.3     1  LIG1        0.2700
     15 N          16.0777  -34.7824   -9.1639 N.pl3   1  LIG1       -0.8690
     16 C          15.8468  -33.6521   -9.9534 C.ar    1  LIG1        0.1000
     17 C          16.4549  -32.4558   -9.5807 C.ar    1  LIG1       -0.1500
     18 C          16.2840  -31.3259  -10.3756 C.ar    1  LIG1        0.1770
     19 C          15.4948  -31.3836  -11.5267 C.ar    1  LIG1       -0.1500
     20 C          14.8690  -32.5771  -11.8773 C.ar    1  LIG1       -0.1500
     21 C          15.0358  -33.7130  -11.0913 C.ar    1  LIG1       -0.1500
     22 CL         17.0662  -29.8415   -9.9419 Cl      1  LIG1       -0.1770
     23 O          16.9069  -36.6449  -10.9906 O.2     1  LIG1       -0.5700
     24 H          16.8166  -40.8452  -15.0791 H       1  LIG1        0.1500
     25 H          17.0910  -41.5684  -12.7812 H       1  LIG1        0.1500
     26 H          14.8275  -37.3235  -13.7370 H       1  LIG1        0.1500
     27 H          16.8915  -39.5456   -9.9417 H       1  LIG1        0.0800
     28 H          15.3737  -40.4944  -10.0480 H       1  LIG1        0.0800
     29 H          16.9332  -41.2441  -10.4821 H       1  LIG1        0.0800
     30 H          14.1755  -38.0197  -10.7369 H       1  LIG1        0.3700
     31 H          15.2093  -36.5938   -8.5117 H       1  LIG1        0.0800
     32 H          14.2235  -35.6733   -9.6972 H       1  LIG1        0.0800
     33 H          17.0769  -35.0455   -9.1514 H       1  LIG1        0.4000
     34 H          17.0531  -32.4055   -8.7109 H       1  LIG1        0.1500
     35 H          15.3750  -30.5168  -12.1246 H       1  LIG1        0.1500
     36 H          14.2610  -32.6202  -12.7453 H       1  LIG1        0.1500
     37 H          14.5462  -34.6162  -11.3487 H       1  LIG1        0.1500
@<TRIPOS>BOND
     1     1     2   ar
     2     1     6   ar
     3     1    24    1
     4     2     3   ar
     5     2    25    1
     6     3     4   ar
     7     3    11    1
     8     4     5   ar
     9     4    12    1
    10     5     6   ar
    11     5    26    1
    12     6     7    1
    13     7     8    1
    14     7     9    1
    15     7    10    1
    16    11    27    1
    17    11    28    1
    18    11    29    1
    19    12    13   am
    20    12    30    1
    21    13    14    1
    22    13    23    2
    23    14    15    1
    24    14    31    1
    25    14    32    1
    26    15    16    1
    27    15    33    1
    28    16    17   ar
    29    16    21   ar
    30    17    18   ar
    31    17    34    1
    32    18    19   ar
    33    18    22    1
    34    19    20   ar
    35    19    35    1
    36    20    21   ar
    37    20    36    1
    38    21    37    1
@<TRIPOS>SUBSTRUCTURE
     1 LIG1        1 TEMP              0 ****  ****    0 ROOT


##########                                Name:    Z1315931726.****
##########                        Cluster_Size:                   1
##########                          Grid_Score:          -37.448296
##########                     Grid_vdw_energy:          -29.116230
##########                      Grid_es_energy:           -8.332064
##########           Internal_energy_repulsive:            9.181071

@<TRIPOS>MOLECULE
Z1315931726.****
 37 38 1 0 0
SMALL
USER_CHARGES
****

@<TRIPOS>ATOM
      1 C          13.8252  -34.9179  -12.7350 C.ar    1  LIG1       -0.1500
      2 C          14.4263  -33.9265  -11.9624 C.ar    1  LIG1       -0.1500
      3 C          15.3510  -34.2556  -10.9754 C.ar    1  LIG1       -0.1440
      4 C          15.6645  -35.6058  -10.7840 C.ar    1  LIG1        0.1170
      5 C          15.0902  -36.6035  -11.5722 C.ar    1  LIG1       -0.1500
      6 C          14.1428  -36.2696  -12.5437 C.ar    1  LIG1       -0.1440
      7 C          13.4777  -37.3566  -13.3964 C.3     1  LIG1        1.1640
      8 F          14.3167  -37.7801  -14.3639 F       1  LIG1       -0.3400
      9 F          13.1303  -38.4104  -12.6343 F       1  LIG1       -0.3400
     10 F          12.3737  -36.8519  -13.9702 F       1  LIG1       -0.3400
     11 C          15.9856  -33.1604  -10.1347 C.3     1  LIG1       -0.0960
     12 N          16.5804  -35.9632   -9.7739 N.am    1  LIG1       -0.5470
     13 C          17.8714  -36.3770   -9.9478 C.2     1  LIG1        0.5690
     14 C          18.7939  -36.7457   -8.7760 C.3     1  LIG1        0.2700
     15 N          19.7841  -37.7809   -9.2061 N.pl3   1  LIG1       -0.8690
     16 C          19.2877  -39.0272   -9.5990 C.ar    1  LIG1        0.1000
     17 C          20.1576  -39.9092  -10.2354 C.ar    1  LIG1       -0.1500
     18 C          19.7052  -41.1762  -10.5929 C.ar    1  LIG1        0.1770
     19 C          18.3859  -41.5553  -10.3341 C.ar    1  LIG1       -0.1500
     20 C          17.5156  -40.6576   -9.7214 C.ar    1  LIG1       -0.1500
     21 C          17.9586  -39.3898   -9.3574 C.ar    1  LIG1       -0.1500
     22 CL         20.7893  -42.2954  -11.3515 Cl      1  LIG1       -0.1770
     23 O          18.2467  -36.3983  -11.0990 O.2     1  LIG1       -0.5700
     24 H          13.1162  -34.6363  -13.4729 H       1  LIG1        0.1500
     25 H          14.1670  -32.9121  -12.1307 H       1  LIG1        0.1500
     26 H          15.3784  -37.6126  -11.4275 H       1  LIG1        0.1500
     27 H          15.8046  -33.3795   -9.0820 H       1  LIG1        0.0800
     28 H          17.0540  -33.1422  -10.3460 H       1  LIG1        0.0800
     29 H          15.5402  -32.1996  -10.3921 H       1  LIG1        0.0800
     30 H          16.2453  -36.0244   -8.8036 H       1  LIG1        0.3700
     31 H          18.1770  -37.1545   -7.9872 H       1  LIG1        0.0800
     32 H          19.3068  -35.8451   -8.4706 H       1  LIG1        0.0800
     33 H          20.5447  -37.8709   -8.5123 H       1  LIG1        0.4000
     34 H          21.1569  -39.6284  -10.4341 H       1  LIG1        0.1500
     35 H          18.0549  -42.5239  -10.6090 H       1  LIG1        0.1500
     36 H          16.5106  -40.9399   -9.5335 H       1  LIG1        0.1500
     37 H          17.2920  -38.7010   -8.9067 H       1  LIG1        0.1500
@<TRIPOS>BOND
     1     1     2   ar
     2     1     6   ar
     3     1    24    1
     4     2     3   ar
     5     2    25    1
     6     3     4   ar
     7     3    11    1
     8     4     5   ar
     9     4    12    1
    10     5     6   ar
    11     5    26    1
    12     6     7    1
    13     7     8    1
    14     7     9    1
    15     7    10    1
    16    11    27    1
    17    11    28    1
    18    11    29    1
    19    12    13   am
    20    12    30    1
    21    13    14    1
    22    13    23    2
    23    14    15    1
    24    14    31    1
    25    14    32    1
    26    15    16    1
    27    15    33    1
    28    16    17   ar
    29    16    21   ar
    30    17    18   ar
    31    17    34    1
    32    18    19   ar
    33    18    22    1
    34    19    20   ar
    35    19    35    1
    36    20    21   ar
    37    20    36    1
    38    21    37    1
@<TRIPOS>SUBSTRUCTURE
     1 LIG1        1 TEMP              0 ****  ****    0 ROOT


##########                                Name:    Z1315931726.****
##########                        Cluster_Size:                   1
##########                          Grid_Score:          -37.316475
##########                     Grid_vdw_energy:          -26.377497
##########                      Grid_es_energy:          -10.938976
##########           Internal_energy_repulsive:            9.994740

@<TRIPOS>MOLECULE
Z1315931726.****
 37 38 1 0 0
SMALL
USER_CHARGES
****

@<TRIPOS>ATOM
      1 C          18.8543  -39.9963  -10.2250 C.ar    1  LIG1       -0.1500
      2 C          18.9740  -38.8940   -9.3813 C.ar    1  LIG1       -0.1500
      3 C          17.8962  -38.0389   -9.1697 C.ar    1  LIG1       -0.1440
      4 C          16.6898  -38.3186   -9.8211 C.ar    1  LIG1        0.1170
      5 C          16.5513  -39.4362  -10.6446 C.ar    1  LIG1       -0.1500
      6 C          17.6442  -40.2763  -10.8744 C.ar    1  LIG1       -0.1440
      7 C          17.5183  -41.4903  -11.8024 C.3     1  LIG1        1.1640
      8 F          16.2210  -41.7808  -12.0301 F       1  LIG1       -0.3400
      9 F          18.1205  -41.2497  -12.9820 F       1  LIG1       -0.3400
     10 F          18.1047  -42.5501  -11.2228 F       1  LIG1       -0.3400
     11 C          18.0511  -36.8348   -8.2559 C.3     1  LIG1       -0.0960
     12 N          15.5927  -37.4524   -9.6397 N.am    1  LIG1       -0.5470
     13 C          15.2938  -36.3430  -10.3800 C.2     1  LIG1        0.5690
     14 C          14.0682  -35.4598  -10.1010 C.3     1  LIG1        0.2700
     15 N          14.1459  -34.2018  -10.9063 N.pl3   1  LIG1       -0.8690
     16 C          15.0609  -33.2274  -10.4974 C.ar    1  LIG1        0.1000
     17 C          15.0911  -32.0217  -11.1939 C.ar    1  LIG1       -0.1500
     18 C          15.9565  -31.0139  -10.7781 C.ar    1  LIG1        0.1770
     19 C          16.8019  -31.2141   -9.6842 C.ar    1  LIG1       -0.1500
     20 C          16.7841  -32.4323   -9.0100 C.ar    1  LIG1       -0.1500
     21 C          15.9206  -33.4451   -9.4157 C.ar    1  LIG1       -0.1500
     22 CL         15.9760  -29.4960  -11.6143 Cl      1  LIG1       -0.1770
     23 O          16.0523  -36.1266  -11.2989 O.2     1  LIG1       -0.5700
     24 H          19.6971  -40.6240  -10.3744 H       1  LIG1        0.1500
     25 H          19.9018  -38.7081   -8.9027 H       1  LIG1        0.1500
     26 H          15.6132  -39.6408  -11.0922 H       1  LIG1        0.1500
     27 H          17.7782  -35.9375   -8.8119 H       1  LIG1        0.0800
     28 H          17.3948  -36.9700   -7.3970 H       1  LIG1        0.0800
     29 H          19.0864  -36.7607   -7.9235 H       1  LIG1        0.0800
     30 H          14.9920  -37.5834   -8.8154 H       1  LIG1        0.3700
     31 H          14.0774  -35.2061   -9.0496 H       1  LIG1        0.0800
     32 H          13.1903  -36.0252  -10.3788 H       1  LIG1        0.0800
     33 H          13.2038  -33.8054  -11.0583 H       1  LIG1        0.4000
     34 H          14.4542  -31.8640  -12.0224 H       1  LIG1        0.1500
     35 H          17.4542  -30.4376   -9.3763 H       1  LIG1        0.1500
     36 H          17.4326  -32.5900   -8.1856 H       1  LIG1        0.1500
     37 H          15.9191  -34.3776   -8.9134 H       1  LIG1        0.1500
@<TRIPOS>BOND
     1     1     2   ar
     2     1     6   ar
     3     1    24    1
     4     2     3   ar
     5     2    25    1
     6     3     4   ar
     7     3    11    1
     8     4     5   ar
     9     4    12    1
    10     5     6   ar
    11     5    26    1
    12     6     7    1
    13     7     8    1
    14     7     9    1
    15     7    10    1
    16    11    27    1
    17    11    28    1
    18    11    29    1
    19    12    13   am
    20    12    30    1
    21    13    14    1
    22    13    23    2
    23    14    15    1
    24    14    31    1
    25    14    32    1
    26    15    16    1
    27    15    33    1
    28    16    17   ar
    29    16    21   ar
    30    17    18   ar
    31    17    34    1
    32    18    19   ar
    33    18    22    1
    34    19    20   ar
    35    19    35    1
    36    20    21   ar
    37    20    36    1
    38    21    37    1
@<TRIPOS>SUBSTRUCTURE
     1 LIG1        1 TEMP              0 ****  ****    0 ROOT


##########                                Name:              G8.sdf
##########                        Cluster_Size:                   6
##########                          Grid_Score:          -51.864223
##########                     Grid_vdw_energy:          -44.528053
##########                      Grid_es_energy:           -7.336170
##########           Internal_energy_repulsive:           13.933808

@<TRIPOS>MOLECULE
G8.sdf
 60 63 1 0 0
SMALL
USER_CHARGES
****

@<TRIPOS>ATOM
      1 C          15.0047  -32.7814  -12.0306 C.ar    1  LIG1        0.1600
      2 N          14.4429  -33.9768  -12.2267 N.ar    1  LIG1       -0.6200
      3 C          14.6842  -34.9717  -11.3710 C.ar    1  LIG1        0.1660
      4 C          15.5160  -34.7854  -10.2447 C.ar    1  LIG1        0.1000
      5 C          16.1180  -33.5464  -10.0328 C.ar    1  LIG1       -0.1500
      6 C          15.8493  -32.5350  -10.9444 C.ar    1  LIG1        0.1770
      7 CL         16.5598  -30.9684  -10.7347 Cl      1  LIG1       -0.1770
      8 N          15.7221  -35.8594   -9.3431 N.pl3   1  LIG1       -0.8690
      9 C          16.9575  -36.0350   -8.5649 C.3     1  LIG1        0.3890
     10 C          17.9321  -36.8493   -9.4002 C.ar    1  LIG1       -0.1400
     11 C          19.3041  -36.8439   -9.4358 C.ar    1  LIG1       -0.1500
     12 C          19.8370  -37.7507  -10.3605 C.ar    1  LIG1       -0.1500
     13 C          18.8738  -38.4600  -11.0468 C.ar    1  LIG1       -0.0450
     14 S          17.2883  -37.9896  -10.5240 S.2     1  LIG1       -0.0800
     15 C          19.0457  -39.4722  -12.0764 C.2     1  LIG1        0.7150
     16 N          17.9268  -40.0895  -12.5708 N.am    1  LIG1       -0.7300
     17 C          17.8403  -41.1539  -13.6242 C.3     1  LIG1        0.2810
     18 C          17.5221  -40.5880  -15.0211 C.2     1  LIG1        0.5690
     19 O          18.0643  -41.0354  -16.0308 O.2     1  LIG1       -0.5700
     20 N          16.6195  -39.5772  -15.1460 N.am    1  LIG1       -0.5790
     21 C          16.2401  -38.9657  -16.4040 C.3     1  LIG1        0.0490
     22 O          20.1368  -39.8120  -12.5193 O.2     1  LIG1       -0.5700
     23 C          14.0225  -36.3000  -11.6660 C.3     1  LIG1       -0.0970
     24 C          15.8443  -37.5283  -16.2841 C.3     1  LIG1       -0.2000
     25 C          14.7941  -38.5945  -16.4901 C.3     1  LIG1       -0.2000
     26 H          14.7991  -32.0077  -12.7248 H       1  LIG1        0.1500
     27 H          16.7592  -33.3625   -9.2156 H       1  LIG1        0.1500
     28 H          14.8840  -36.1046   -8.7965 H       1  LIG1        0.4000
     29 H          16.7618  -36.5494   -7.6346 H       1  LIG1        0.0800
     30 H          17.3985  -35.0627   -8.3894 H       1  LIG1        0.0800
     31 H          19.9055  -36.2150   -8.8313 H       1  LIG1        0.1500
     32 H          20.8782  -37.8698  -10.5112 H       1  LIG1        0.1500
     33 H          17.0449  -39.8666  -12.0984 H       1  LIG1        0.3700
     34 C          16.7900  -42.2376  -13.2556 C.3     1  LIG1       -0.1600
     35 H          16.2720  -39.1507  -14.2653 H       1  LIG1        0.3700
     36 H          16.7544  -39.2994  -17.2981 H       1  LIG1        0.1000
     37 H          14.8014  -37.0601  -11.7265 H       1  LIG1        0.0800
     38 H          13.3174  -36.5150  -10.8649 H       1  LIG1        0.0800
     39 H          13.4986  -36.2266  -12.6202 H       1  LIG1        0.0800
     40 C          15.4849  -41.5796  -12.7420 C.3     1  LIG1       -0.0800
     41 H          17.2115  -42.8797  -12.4820 H       1  LIG1        0.0800
     42 H          16.5676  -42.8658  -14.1169 H       1  LIG1        0.0800
     43 C          14.3033  -42.5442  -12.8859 C.3     1  LIG1       -0.1600
     44 C          15.4434  -41.3196  -11.2296 C.3     1  LIG1       -0.1600
     45 C          15.1240  -42.6731  -10.5909 C.3     1  LIG1       -0.1600
     46 C          14.3710  -43.4662  -11.6643 C.3     1  LIG1       -0.1600
     47 H          15.2744  -40.6647  -13.2994 H       1  LIG1        0.0800
     48 H          14.3443  -43.1085  -13.8192 H       1  LIG1        0.0800
     49 H          13.3726  -41.9746  -12.8521 H       1  LIG1        0.0800
     50 H          14.6284  -40.6260  -11.0133 H       1  LIG1        0.0800
     51 H          16.3724  -40.9056  -10.8397 H       1  LIG1        0.0800
     52 H          14.5129  -42.5426   -9.6954 H       1  LIG1        0.0800
     53 H          16.0484  -43.1924  -10.3322 H       1  LIG1        0.0800
     54 H          13.3671  -43.7314  -11.3282 H       1  LIG1        0.0800
     55 H          14.9278  -44.3716  -11.9107 H       1  LIG1        0.0800
     56 H          18.8054  -41.6324  -13.7122 H       1  LIG1        0.0800
     57 H          16.0716  -36.8994  -17.1347 H       1  LIG1        0.1000
     58 H          15.9020  -37.0839  -15.2992 H       1  LIG1        0.1000
     59 H          14.1719  -38.8366  -15.6391 H       1  LIG1        0.1000
     60 H          14.3456  -38.6509  -17.4725 H       1  LIG1        0.1000
@<TRIPOS>BOND
     1     1     2   ar
     2     1     6   ar
     3     1    26    1
     4     2     3   ar
     5     3     4   ar
     6     3    23    1
     7     4     5   ar
     8     4     8    1
     9     5     6   ar
    10     5    27    1
    11     6     7    1
    12     8     9    1
    13     8    28    1
    14     9    10    1
    15     9    29    1
    16     9    30    1
    17    10    11   ar
    18    10    14   ar
    19    11    12   ar
    20    11    31    1
    21    12    13   ar
    22    12    32    1
    23    13    14   ar
    24    13    15    1
    25    15    16   am
    26    15    22    2
    27    16    17    1
    28    16    33    1
    29    17    18    1
    30    17    34    1
    31    17    56    1
    32    18    19    2
    33    18    20   am
    34    20    21    1
    35    20    35    1
    36    21    24    1
    37    21    25    1
    38    21    36    1
    39    23    37    1
    40    23    38    1
    41    23    39    1
    42    24    25    1
    43    24    57    1
    44    24    58    1
    45    25    59    1
    46    25    60    1
    47    34    40    1
    48    34    41    1
    49    34    42    1
    50    40    43    1
    51    40    44    1
    52    40    47    1
    53    43    46    1
    54    43    48    1
    55    43    49    1
    56    44    45    1
    57    44    50    1
    58    44    51    1
    59    45    46    1
    60    45    52    1
    61    45    53    1
    62    46    54    1
    63    46    55    1
@<TRIPOS>SUBSTRUCTURE
     1 LIG1        1 TEMP              0 ****  ****    0 ROOT


##########                                Name:              G8.sdf
##########                        Cluster_Size:                   4
##########                          Grid_Score:          -46.920563
##########                     Grid_vdw_energy:          -41.586288
##########                      Grid_es_energy:           -5.334276
##########           Internal_energy_repulsive:           16.060717

@<TRIPOS>MOLECULE
G8.sdf
 60 63 1 0 0
SMALL
USER_CHARGES
****

@<TRIPOS>ATOM
      1 C          15.6416  -31.6051  -11.7476 C.ar    1  LIG1        0.1600
      2 N          15.0643  -32.6634  -12.3218 N.ar    1  LIG1       -0.6200
      3 C          15.1179  -33.8546  -11.7230 C.ar    1  LIG1        0.1660
      4 C          15.7645  -34.0218  -10.4784 C.ar    1  LIG1        0.1000
      5 C          16.3810  -32.9288   -9.8722 C.ar    1  LIG1       -0.1500
      6 C          16.3102  -31.7056  -10.5241 C.ar    1  LIG1        0.1770
      7 CL         17.0491  -30.3049   -9.8206 Cl      1  LIG1       -0.1770
      8 N          15.7723  -35.2977   -9.8611 N.pl3   1  LIG1       -0.8690
      9 C          16.8169  -35.7346   -8.9228 C.3     1  LIG1        0.3890
     10 C          17.5409  -36.9209   -9.5385 C.ar    1  LIG1       -0.1400
     11 C          17.2398  -38.2600   -9.5255 C.ar    1  LIG1       -0.1500
     12 C          18.1752  -39.0438  -10.2124 C.ar    1  LIG1       -0.1500
     13 C          19.2076  -38.3097  -10.7576 C.ar    1  LIG1       -0.0450
     14 S          18.9998  -36.6230  -10.4106 S.2     1  LIG1       -0.0800
     15 C          20.3521  -38.7739  -11.5248 C.2     1  LIG1        0.7150
     16 N          20.7583  -40.0721  -11.3606 N.am    1  LIG1       -0.7300
     17 C          21.8981  -40.7819  -12.0293 C.3     1  LIG1        0.2810
     18 C          21.4979  -41.4239  -13.3711 C.2     1  LIG1        0.5690
     19 O          22.3083  -41.5452  -14.2887 O.2     1  LIG1       -0.5700
     20 N          20.2252  -41.8727  -13.5471 N.am    1  LIG1       -0.5790
     21 C          19.7335  -42.4924  -14.7614 C.3     1  LIG1        0.0490
     22 O          20.9808  -38.0654  -12.3026 O.2     1  LIG1       -0.5700
     23 C          14.4518  -35.0084  -12.4401 C.3     1  LIG1       -0.0970
     24 C          18.2767  -42.2635  -15.0117 C.3     1  LIG1       -0.2000
     25 C          18.7659  -43.6085  -14.5279 C.3     1  LIG1       -0.2000
     26 H          15.5869  -30.6701  -12.2433 H       1  LIG1        0.1500
     27 H          16.8895  -33.0064   -8.9513 H       1  LIG1        0.1500
     28 H          14.8372  -35.6226   -9.5756 H       1  LIG1        0.4000
     29 H          16.3903  -36.0251   -7.9730 H       1  LIG1        0.0800
     30 H          17.5325  -34.9322   -8.8016 H       1  LIG1        0.0800
     31 H          16.3898  -38.6668   -9.0413 H       1  LIG1        0.1500
     32 H          18.0896  -40.0959  -10.2963 H       1  LIG1        0.1500
     33 H          20.2859  -40.6005  -10.6202 H       1  LIG1        0.3700
     34 C          22.5174  -41.8652  -11.1040 C.3     1  LIG1       -0.1600
     35 H          19.5437  -41.6488  -12.7964 H       1  LIG1        0.3700
     36 H          20.4121  -42.5490  -15.6049 H       1  LIG1        0.1000
     37 H          15.1942  -35.7942  -12.5794 H       1  LIG1        0.0800
     38 H          13.6173  -35.3521  -11.8313 H       1  LIG1        0.0800
     39 H          14.0929  -34.6588  -13.4093 H       1  LIG1        0.0800
     40 C          23.7151  -42.5577  -11.8010 C.3     1  LIG1       -0.0800
     41 H          21.7482  -42.6012  -10.8690 H       1  LIG1        0.0800
     42 H          22.8469  -41.4249  -10.1640 H       1  LIG1        0.0800
     43 C          24.8040  -41.5351  -12.1418 C.3     1  LIG1       -0.1600
     44 C          24.5130  -43.5207  -10.9106 C.3     1  LIG1       -0.1600
     45 C          25.4090  -42.6307  -10.0464 C.3     1  LIG1       -0.1600
     46 C          25.6089  -41.3429  -10.8526 C.3     1  LIG1       -0.1600
     47 H          23.3878  -43.0556  -12.7159 H       1  LIG1        0.0800
     48 H          24.3856  -40.5928  -12.4998 H       1  LIG1        0.0800
     49 H          25.4563  -41.9529  -12.9111 H       1  LIG1        0.0800
     50 H          25.1439  -44.1467  -11.5450 H       1  LIG1        0.0800
     51 H          23.8809  -44.1624  -10.2981 H       1  LIG1        0.0800
     52 H          26.3630  -43.1225   -9.8455 H       1  LIG1        0.0800
     53 H          24.9095  -42.3994   -9.1039 H       1  LIG1        0.0800
     54 H          26.6636  -41.1789  -11.0801 H       1  LIG1        0.0800
     55 H          25.2170  -40.4933  -10.2913 H       1  LIG1        0.0800
     56 H          22.6652  -40.0581  -12.2655 H       1  LIG1        0.0800
     57 H          17.9762  -42.2002  -16.0491 H       1  LIG1        0.1000
     58 H          17.7461  -41.6505  -14.2951 H       1  LIG1        0.1000
     59 H          18.5487  -43.8650  -13.4998 H       1  LIG1        0.1000
     60 H          18.7792  -44.4100  -15.2536 H       1  LIG1        0.1000
@<TRIPOS>BOND
     1     1     2   ar
     2     1     6   ar
     3     1    26    1
     4     2     3   ar
     5     3     4   ar
     6     3    23    1
     7     4     5   ar
     8     4     8    1
     9     5     6   ar
    10     5    27    1
    11     6     7    1
    12     8     9    1
    13     8    28    1
    14     9    10    1
    15     9    29    1
    16     9    30    1
    17    10    11   ar
    18    10    14   ar
    19    11    12   ar
    20    11    31    1
    21    12    13   ar
    22    12    32    1
    23    13    14   ar
    24    13    15    1
    25    15    16   am
    26    15    22    2
    27    16    17    1
    28    16    33    1
    29    17    18    1
    30    17    34    1
    31    17    56    1
    32    18    19    2
    33    18    20   am
    34    20    21    1
    35    20    35    1
    36    21    24    1
    37    21    25    1
    38    21    36    1
    39    23    37    1
    40    23    38    1
    41    23    39    1
    42    24    25    1
    43    24    57    1
    44    24    58    1
    45    25    59    1
    46    25    60    1
    47    34    40    1
    48    34    41    1
    49    34    42    1
    50    40    43    1
    51    40    44    1
    52    40    47    1
    53    43    46    1
    54    43    48    1
    55    43    49    1
    56    44    45    1
    57    44    50    1
    58    44    51    1
    59    45    46    1
    60    45    52    1
    61    45    53    1
    62    46    54    1
    63    46    55    1
@<TRIPOS>SUBSTRUCTURE
     1 LIG1        1 TEMP              0 ****  ****    0 ROOT


##########                                Name:              G7.sdf
##########                        Cluster_Size:                   3
##########                          Grid_Score:          -49.266296
##########                     Grid_vdw_energy:          -43.162678
##########                      Grid_es_energy:           -6.103617
##########           Internal_energy_repulsive:           24.383802

@<TRIPOS>MOLECULE
G7.sdf
 61 64 1 0 0
SMALL
USER_CHARGES
****

@<TRIPOS>ATOM
      1 C          15.0596  -32.7379  -12.2694 C.ar    1  LIG1        0.1600
      2 N          14.7457  -33.9860  -12.6311 N.ar    1  LIG1       -0.6200
      3 C          14.9652  -34.9972  -11.7876 C.ar    1  LIG1        0.1660
      4 C          15.5135  -34.7711  -10.5071 C.ar    1  LIG1        0.1000
      5 C          15.8550  -33.4795  -10.1172 C.ar    1  LIG1       -0.1500
      6 C          15.6181  -32.4515  -11.0183 C.ar    1  LIG1        0.1770
      7 CL         16.0117  -30.8178  -10.5949 Cl      1  LIG1       -0.1770
      8 N          15.7370  -35.8398   -9.6159 N.pl3   1  LIG1       -0.8690
      9 C          16.9427  -35.7751   -8.7930 C.3     1  LIG1        0.3890
     10 C          17.9417  -36.6039   -9.5685 C.ar    1  LIG1       -0.1400
     11 C          19.2822  -36.3707   -9.7247 C.ar    1  LIG1       -0.1500
     12 C          19.9255  -37.3491  -10.4940 C.ar    1  LIG1       -0.1500
     13 C          19.0761  -38.3467  -10.9302 C.ar    1  LIG1       -0.0450
     14 S          17.4600  -38.0559  -10.3657 S.2     1  LIG1       -0.0800
     15 C          19.3827  -39.5137  -11.7423 C.2     1  LIG1        0.7150
     16 N          18.3604  -40.3681  -12.0611 N.am    1  LIG1       -0.7300
     17 C          18.4170  -41.6263  -12.8761 C.3     1  LIG1        0.2810
     18 C          18.1920  -41.3759  -14.3803 C.2     1  LIG1        0.5690
     19 O          18.7383  -42.0664  -15.2363 O.2     1  LIG1       -0.5700
     20 N          17.3760  -40.3711  -14.7876 N.am    1  LIG1       -0.6550
     21 C          17.1152  -40.0746  -16.2048 C.3     1  LIG1        0.2250
     22 O          20.5056  -39.7803  -12.1550 O.2     1  LIG1       -0.5700
     23 C          14.5919  -36.3843  -12.2605 C.3     1  LIG1       -0.0970
     24 C          15.8222  -40.7805  -16.7290 C.3     1  LIG1        0.2580
     25 C          16.3842  -38.7066  -16.4030 C.3     1  LIG1        0.2580
     26 O          15.1744  -39.4864  -16.6087 O.3     1  LIG1       -0.5160
     27 H          14.8782  -31.9527  -12.9564 H       1  LIG1        0.1500
     28 H          16.2955  -33.2863   -9.1761 H       1  LIG1        0.1500
     29 H          14.9323  -35.9940   -8.9882 H       1  LIG1        0.4000
     30 H          16.7881  -36.2146   -7.8165 H       1  LIG1        0.0800
     31 H          17.2950  -34.7523   -8.7427 H       1  LIG1        0.0800
     32 H          19.7813  -35.5368   -9.2991 H       1  LIG1        0.1500
     33 H          20.9616  -37.3202  -10.7086 H       1  LIG1        0.1500
     34 H          17.4410  -40.1359  -11.6721 H       1  LIG1        0.3700
     35 C          17.3907  -42.6760  -12.3693 C.3     1  LIG1       -0.1600
     36 H          17.1215  -39.6557  -14.0773 H       1  LIG1        0.3700
     37 H          17.9994  -40.2218  -16.8101 H       1  LIG1        0.0000
     38 H          15.4905  -37.0005  -12.2461 H       1  LIG1        0.0800
     39 H          13.8298  -36.7795  -11.5908 H       1  LIG1        0.0800
     40 H          14.2016  -36.3149  -13.2764 H       1  LIG1        0.0800
     41 H          15.4277  -41.5301  -16.0572 H       1  LIG1        0.0000
     42 H          15.9098  -41.1126  -17.7547 H       1  LIG1        0.0000
     43 H          16.7039  -38.1835  -17.2945 H       1  LIG1        0.0000
     44 H          16.3586  -38.0872  -15.5170 H       1  LIG1        0.0000
     45 C          15.9606  -42.3136  -12.8432 C.3     1  LIG1       -0.0800
     46 H          17.4262  -42.6978  -11.2794 H       1  LIG1        0.0800
     47 H          17.6526  -43.6714  -12.7260 H       1  LIG1        0.0800
     48 C          14.9443  -43.3303  -12.3137 C.3     1  LIG1       -0.1600
     49 C          15.3909  -41.0184  -12.2486 C.3     1  LIG1       -0.1600
     50 C          14.9323  -41.3879  -10.8357 C.3     1  LIG1       -0.1600
     51 C          14.6286  -42.8886  -10.8810 C.3     1  LIG1       -0.1600
     52 H          15.9133  -42.2931  -13.9338 H       1  LIG1        0.0800
     53 H          15.3273  -44.3514  -12.3442 H       1  LIG1        0.0800
     54 H          14.0339  -43.2704  -12.9138 H       1  LIG1        0.0800
     55 H          14.5209  -40.7142  -12.8342 H       1  LIG1        0.0800
     56 H          16.1100  -40.2008  -12.2326 H       1  LIG1        0.0800
     57 H          14.0471  -40.8140  -10.5546 H       1  LIG1        0.0800
     58 H          15.7347  -41.1969  -10.1208 H       1  LIG1        0.0800
     59 H          13.5826  -43.0875  -10.6399 H       1  LIG1        0.0800
     60 H          15.2745  -43.4166  -10.1770 H       1  LIG1        0.0800
     61 H          19.4077  -42.0505  -12.7914 H       1  LIG1        0.0800
@<TRIPOS>BOND
     1     1     2   ar
     2     1     6   ar
     3     1    27    1
     4     2     3   ar
     5     3     4   ar
     6     3    23    1
     7     4     5   ar
     8     4     8    1
     9     5     6   ar
    10     5    28    1
    11     6     7    1
    12     8     9    1
    13     8    29    1
    14     9    10    1
    15     9    30    1
    16     9    31    1
    17    10    11   ar
    18    10    14   ar
    19    11    12   ar
    20    11    32    1
    21    12    13   ar
    22    12    33    1
    23    13    14   ar
    24    13    15    1
    25    15    16   am
    26    15    22    2
    27    16    17    1
    28    16    34    1
    29    17    18    1
    30    17    35    1
    31    17    61    1
    32    18    19    2
    33    18    20   am
    34    20    21    1
    35    20    36    1
    36    21    24    1
    37    21    25    1
    38    21    37    1
    39    23    38    1
    40    23    39    1
    41    23    40    1
    42    24    26    1
    43    24    41    1
    44    24    42    1
    45    25    26    1
    46    25    43    1
    47    25    44    1
    48    35    45    1
    49    35    46    1
    50    35    47    1
    51    45    48    1
    52    45    49    1
    53    45    52    1
    54    48    51    1
    55    48    53    1
    56    48    54    1
    57    49    50    1
    58    49    55    1
    59    49    56    1
    60    50    51    1
    61    50    57    1
    62    50    58    1
    63    51    59    1
    64    51    60    1
@<TRIPOS>SUBSTRUCTURE
     1 LIG1        1 TEMP              0 ****  ****    0 ROOT


##########                                Name:              G7.sdf
##########                        Cluster_Size:                   2
##########                          Grid_Score:          -47.072433
##########                     Grid_vdw_energy:          -39.904789
##########                      Grid_es_energy:           -7.167645
##########           Internal_energy_repulsive:           73.030212

@<TRIPOS>MOLECULE
G7.sdf
 61 64 1 0 0
SMALL
USER_CHARGES
****

@<TRIPOS>ATOM
      1 C          18.8491  -36.7209  -12.4535 C.ar    1  LIG1        0.1600
      2 N          18.8563  -36.7966  -11.1188 N.ar    1  LIG1       -0.6200
      3 C          18.1321  -35.9352  -10.4007 C.ar    1  LIG1        0.1660
      4 C          17.3428  -34.9477  -11.0279 C.ar    1  LIG1        0.1000
      5 C          17.3305  -34.8482  -12.4160 C.ar    1  LIG1       -0.1500
      6 C          18.0969  -35.7556  -13.1329 C.ar    1  LIG1        0.1770
      7 CL         18.1215  -35.6941  -14.8646 Cl      1  LIG1       -0.1770
      8 N          16.5734  -34.0446  -10.2671 N.pl3   1  LIG1       -0.8690
      9 C          15.2916  -34.5297   -9.7605 C.3     1  LIG1        0.3890
     10 C          14.8416  -35.5072  -10.8227 C.ar    1  LIG1       -0.1400
     11 C          14.2010  -35.2283  -12.0007 C.ar    1  LIG1       -0.1500
     12 C          13.9410  -36.3701  -12.7698 C.ar    1  LIG1       -0.1500
     13 C          14.3885  -37.5374  -12.1833 C.ar    1  LIG1       -0.0450
     14 S          15.1453  -37.1973  -10.6581 S.2     1  LIG1       -0.0800
     15 C          14.2956  -38.9008  -12.6811 C.2     1  LIG1        0.7150
     16 N          15.1021  -39.8532  -12.1163 N.am    1  LIG1       -0.7300
     17 C          15.1942  -41.3132  -12.4488 C.3     1  LIG1        0.2810
     18 C          16.2160  -42.0636  -11.5720 C.2     1  LIG1        0.5690
     19 O          16.1708  -43.2827  -11.4318 O.2     1  LIG1       -0.5700
     20 N          17.1945  -41.3772  -10.9297 N.am    1  LIG1       -0.6550
     21 C          18.2025  -42.0266  -10.0774 C.3     1  LIG1        0.2250
     22 O          13.5395  -39.2470  -13.5814 O.2     1  LIG1       -0.5700
     23 C          18.1884  -36.0726   -8.8956 C.3     1  LIG1       -0.0970
     24 C          18.5216  -43.4845  -10.5440 C.3     1  LIG1        0.2580
     25 C          19.6628  -41.6361  -10.4778 C.3     1  LIG1        0.2580
     26 O          19.7384  -42.9388  -11.1189 O.3     1  LIG1       -0.5160
     27 H          19.4333  -37.4138  -13.0014 H       1  LIG1        0.1500
     28 H          16.7725  -34.0986  -12.9097 H       1  LIG1        0.1500
     29 H          17.1049  -33.6606   -9.4700 H       1  LIG1        0.4000
     30 H          14.5658  -33.7323   -9.6714 H       1  LIG1        0.0800
     31 H          15.4457  -35.0635   -8.8310 H       1  LIG1        0.0800
     32 H          13.9363  -34.2457  -12.3006 H       1  LIG1        0.1500
     33 H          13.4543  -36.3300  -13.7090 H       1  LIG1        0.1500
     34 H          15.7472  -39.5250  -11.3905 H       1  LIG1        0.3700
     35 C          15.5415  -41.5321  -13.9466 C.3     1  LIG1       -0.1600
     36 H          17.0760  -40.3466  -10.8587 H       1  LIG1        0.3700
     37 H          17.9632  -41.9195   -9.0280 H       1  LIG1        0.0000
     38 H          18.5619  -35.1356   -8.4836 H       1  LIG1        0.0800
     39 H          17.1845  -36.2914   -8.5354 H       1  LIG1        0.0800
     40 H          18.8656  -36.8892   -8.6435 H       1  LIG1        0.0800
     41 H          17.8286  -43.8728  -11.2772 H       1  LIG1        0.0000
     42 H          18.7121  -44.1584   -9.7197 H       1  LIG1        0.0000
     43 H          20.3238  -41.5478   -9.6257 H       1  LIG1        0.0000
     44 H          19.7244  -40.8059  -11.1679 H       1  LIG1        0.0000
     45 C          16.8161  -40.7399  -14.3325 C.3     1  LIG1       -0.0800
     46 H          14.6982  -41.1958  -14.5512 H       1  LIG1        0.0800
     47 H          15.6923  -42.5908  -14.1544 H       1  LIG1        0.0800
     48 C          18.0665  -41.6030  -14.1357 C.3     1  LIG1       -0.1600
     49 C          16.9432  -40.4062  -15.8252 C.3     1  LIG1       -0.1600
     50 C          17.4284  -41.6970  -16.4898 C.3     1  LIG1       -0.1600
     51 C          18.1708  -42.4694  -15.3951 C.3     1  LIG1       -0.1600
     52 H          16.9034  -39.8372  -13.7246 H       1  LIG1        0.0800
     53 H          18.0099  -42.2121  -13.2324 H       1  LIG1        0.0800
     54 H          18.9425  -40.9537  -14.0764 H       1  LIG1        0.0800
     55 H          17.7066  -39.6356  -15.9507 H       1  LIG1        0.0800
     56 H          16.0116  -40.0566  -16.2676 H       1  LIG1        0.0800
     57 H          18.0867  -41.4740  -17.3317 H       1  LIG1        0.0800
     58 H          16.5747  -42.2817  -16.8374 H       1  LIG1        0.0800
     59 H          19.2164  -42.6300  -15.6646 H       1  LIG1        0.0800
     60 H          17.6830  -43.4314  -15.2273 H       1  LIG1        0.0800
     61 H          14.2374  -41.7755  -12.2502 H       1  LIG1        0.0800
@<TRIPOS>BOND
     1     1     2   ar
     2     1     6   ar
     3     1    27    1
     4     2     3   ar
     5     3     4   ar
     6     3    23    1
     7     4     5   ar
     8     4     8    1
     9     5     6   ar
    10     5    28    1
    11     6     7    1
    12     8     9    1
    13     8    29    1
    14     9    10    1
    15     9    30    1
    16     9    31    1
    17    10    11   ar
    18    10    14   ar
    19    11    12   ar
    20    11    32    1
    21    12    13   ar
    22    12    33    1
    23    13    14   ar
    24    13    15    1
    25    15    16   am
    26    15    22    2
    27    16    17    1
    28    16    34    1
    29    17    18    1
    30    17    35    1
    31    17    61    1
    32    18    19    2
    33    18    20   am
    34    20    21    1
    35    20    36    1
    36    21    24    1
    37    21    25    1
    38    21    37    1
    39    23    38    1
    40    23    39    1
    41    23    40    1
    42    24    26    1
    43    24    41    1
    44    24    42    1
    45    25    26    1
    46    25    43    1
    47    25    44    1
    48    35    45    1
    49    35    46    1
    50    35    47    1
    51    45    48    1
    52    45    49    1
    53    45    52    1
    54    48    51    1
    55    48    53    1
    56    48    54    1
    57    49    50    1
    58    49    55    1
    59    49    56    1
    60    50    51    1
    61    50    57    1
    62    50    58    1
    63    51    59    1
    64    51    60    1
@<TRIPOS>SUBSTRUCTURE
     1 LIG1        1 TEMP              0 ****  ****    0 ROOT


##########                                Name:              G7.sdf
##########                        Cluster_Size:                   3
##########                          Grid_Score:          -46.178905
##########                     Grid_vdw_energy:          -42.704681
##########                      Grid_es_energy:           -3.474224
##########           Internal_energy_repulsive:           21.652241

@<TRIPOS>MOLECULE
G7.sdf
 61 64 1 0 0
SMALL
USER_CHARGES
****

@<TRIPOS>ATOM
      1 C          15.3535  -32.1047  -11.7507 C.ar    1  LIG1        0.1600
      2 N          14.8716  -33.2739  -12.1843 N.ar    1  LIG1       -0.6200
      3 C          15.1612  -34.3975  -11.5241 C.ar    1  LIG1        0.1660
      4 C          15.9604  -34.3733  -10.3614 C.ar    1  LIG1        0.1000
      5 C          16.4782  -33.1664   -9.9009 C.ar    1  LIG1       -0.1500
      6 C          16.1621  -32.0177  -10.6117 C.ar    1  LIG1        0.1770
      7 CL         16.7664  -30.4797  -10.0894 Cl      1  LIG1       -0.1770
      8 N          16.2580  -35.5604   -9.6623 N.pl3   1  LIG1       -0.8690
      9 C          17.6328  -35.7279   -9.1964 C.3     1  LIG1        0.3890
     10 C          17.9486  -37.1649   -9.5447 C.ar    1  LIG1       -0.1400
     11 C          18.8626  -37.9908   -8.9461 C.ar    1  LIG1       -0.1500
     12 C          18.8926  -39.2755   -9.5042 C.ar    1  LIG1       -0.1500
     13 C          17.9921  -39.4432  -10.5375 C.ar    1  LIG1       -0.0450
     14 S          17.0985  -37.9789  -10.8059 S.2     1  LIG1       -0.0800
     15 C          17.7435  -40.6263  -11.3462 C.2     1  LIG1        0.7150
     16 N          17.1730  -40.4596  -12.5804 N.am    1  LIG1       -0.7300
     17 C          16.8196  -41.5081  -13.5934 C.3     1  LIG1        0.2810
     18 C          18.0585  -42.1378  -14.2604 C.2     1  LIG1        0.5690
     19 O          19.1833  -42.0009  -13.7872 O.2     1  LIG1       -0.5700
     20 N          17.9228  -42.8620  -15.3999 N.am    1  LIG1       -0.6550
     21 C          19.0595  -43.4909  -16.0903 C.3     1  LIG1        0.2250
     22 O          18.0110  -41.7666  -10.9850 O.2     1  LIG1       -0.5700
     23 C          14.5883  -35.6863  -12.0702 C.3     1  LIG1       -0.0970
     24 C          18.8316  -43.5930  -17.6339 C.3     1  LIG1        0.2580
     25 C          20.2145  -42.4781  -16.3818 C.3     1  LIG1        0.2580
     26 O          19.7262  -42.4551  -17.7511 O.3     1  LIG1       -0.5160
     27 H          15.1118  -31.2273  -12.2924 H       1  LIG1        0.1500
     28 H          17.1047  -33.1242   -9.0506 H       1  LIG1        0.1500
     29 H          15.6301  -35.7010   -8.8552 H       1  LIG1        0.4000
     30 H          17.7155  -35.5880   -8.1268 H       1  LIG1        0.0800
     31 H          18.2897  -35.0752   -9.7578 H       1  LIG1        0.0800
     32 H          19.4787  -37.6876   -8.1373 H       1  LIG1        0.1500
     33 H          19.5411  -40.0365   -9.1567 H       1  LIG1        0.1500
     34 H          16.9297  -39.4978  -12.8383 H       1  LIG1        0.3700
     35 C          15.8764  -40.9417  -14.6895 C.3     1  LIG1       -0.1600
     36 H          17.0237  -42.7656  -15.9132 H       1  LIG1        0.3700
     37 H          19.3583  -44.4107  -15.6058 H       1  LIG1        0.0000
     38 H          15.4176  -36.3524  -12.3065 H       1  LIG1        0.0800
     39 H          13.9369  -36.1182  -11.3121 H       1  LIG1        0.0800
     40 H          14.0190  -35.4619  -12.9728 H       1  LIG1        0.0800
     41 H          17.8170  -43.3840  -17.9430 H       1  LIG1        0.0000
     42 H          19.2436  -44.4970  -18.0616 H       1  LIG1        0.0000
     43 H          21.1970  -42.9226  -16.2931 H       1  LIG1        0.0000
     44 H          20.1134  -41.5328  -15.8667 H       1  LIG1        0.0000
     45 C          16.6326  -39.9353  -15.5931 C.3     1  LIG1       -0.0800
     46 H          15.0369  -40.4445  -14.2017 H       1  LIG1        0.0800
     47 H          15.4706  -41.7476  -15.2999 H       1  LIG1        0.0800
     48 C          15.8002  -39.5946  -16.8333 C.3     1  LIG1       -0.1600
     49 C          16.8155  -38.5357  -14.9904 C.3     1  LIG1       -0.1600
     50 C          15.4671  -37.8349  -15.1750 C.3     1  LIG1       -0.1600
     51 C          14.8124  -38.5140  -16.3818 C.3     1  LIG1       -0.1600
     52 H          17.5921  -40.3505  -15.9075 H       1  LIG1        0.0800
     53 H          15.2844  -40.4672  -17.2369 H       1  LIG1        0.0800
     54 H          16.4568  -39.1791  -17.6005 H       1  LIG1        0.0800
     55 H          17.5736  -38.0002  -15.5657 H       1  LIG1        0.0800
     56 H          17.1141  -38.5549  -13.9434 H       1  LIG1        0.0800
     57 H          15.6080  -36.7667  -15.3510 H       1  LIG1        0.0800
     58 H          14.8460  -37.9813  -14.2894 H       1  LIG1        0.0800
     59 H          14.6310  -37.7996  -17.1870 H       1  LIG1        0.0800
     60 H          13.8695  -38.9735  -16.0794 H       1  LIG1        0.0800
     61 H          16.3098  -42.3182  -13.0911 H       1  LIG1        0.0800
@<TRIPOS>BOND
     1     1     2   ar
     2     1     6   ar
     3     1    27    1
     4     2     3   ar
     5     3     4   ar
     6     3    23    1
     7     4     5   ar
     8     4     8    1
     9     5     6   ar
    10     5    28    1
    11     6     7    1
    12     8     9    1
    13     8    29    1
    14     9    10    1
    15     9    30    1
    16     9    31    1
    17    10    11   ar
    18    10    14   ar
    19    11    12   ar
    20    11    32    1
    21    12    13   ar
    22    12    33    1
    23    13    14   ar
    24    13    15    1
    25    15    16   am
    26    15    22    2
    27    16    17    1
    28    16    34    1
    29    17    18    1
    30    17    35    1
    31    17    61    1
    32    18    19    2
    33    18    20   am
    34    20    21    1
    35    20    36    1
    36    21    24    1
    37    21    25    1
    38    21    37    1
    39    23    38    1
    40    23    39    1
    41    23    40    1
    42    24    26    1
    43    24    41    1
    44    24    42    1
    45    25    26    1
    46    25    43    1
    47    25    44    1
    48    35    45    1
    49    35    46    1
    50    35    47    1
    51    45    48    1
    52    45    49    1
    53    45    52    1
    54    48    51    1
    55    48    53    1
    56    48    54    1
    57    49    50    1
    58    49    55    1
    59    49    56    1
    60    50    51    1
    61    50    57    1
    62    50    58    1
    63    51    59    1
    64    51    60    1
@<TRIPOS>SUBSTRUCTURE
     1 LIG1        1 TEMP              0 ****  ****    0 ROOT


##########                                Name:              G7.sdf
##########                        Cluster_Size:                   1
##########                          Grid_Score:          -45.435829
##########                     Grid_vdw_energy:          -37.560856
##########                      Grid_es_energy:           -7.874975
##########           Internal_energy_repulsive:           66.043777

@<TRIPOS>MOLECULE
G7.sdf
 61 64 1 0 0
SMALL
USER_CHARGES
****

@<TRIPOS>ATOM
      1 C          15.6083  -32.0933  -11.7155 C.ar    1  LIG1        0.1600
      2 N          15.1659  -33.2867  -12.1243 N.ar    1  LIG1       -0.6200
      3 C          15.2866  -34.3493  -11.3253 C.ar    1  LIG1        0.1660
      4 C          15.8639  -34.2340  -10.0428 C.ar    1  LIG1        0.1000
      5 C          16.3385  -33.0013   -9.6044 C.ar    1  LIG1       -0.1500
      6 C          16.2017  -31.9178  -10.4600 C.ar    1  LIG1        0.1770
      7 CL         16.7633  -30.3519   -9.9746 Cl      1  LIG1       -0.1770
      8 N          15.9831  -35.3562   -9.1986 N.pl3   1  LIG1       -0.8690
      9 C          17.2960  -35.6038   -8.6071 C.3     1  LIG1        0.3890
     10 C          17.7630  -36.8621   -9.3033 C.ar    1  LIG1       -0.1400
     11 C          17.0426  -38.0009   -9.5481 C.ar    1  LIG1       -0.1500
     12 C          17.7744  -38.9787  -10.2344 C.ar    1  LIG1       -0.1500
     13 C          19.0671  -38.5896  -10.5253 C.ar    1  LIG1       -0.0450
     14 S          19.3628  -36.9829   -9.9373 S.2     1  LIG1       -0.0800
     15 C          20.1079  -39.3325  -11.2183 C.2     1  LIG1        0.7150
     16 N          19.8552  -40.6341  -11.5626 N.am    1  LIG1       -0.7300
     17 C          20.7544  -41.6015  -12.2740 C.3     1  LIG1        0.2810
     18 C          19.9776  -42.6306  -13.1188 C.2     1  LIG1        0.5690
     19 O          18.8601  -43.0198  -12.7910 O.2     1  LIG1       -0.5700
     20 N          20.5270  -43.1317  -14.2539 N.am    1  LIG1       -0.6550
     21 C          19.8443  -44.1157  -15.1084 C.3     1  LIG1        0.2250
     22 O          21.2018  -38.8621  -11.5088 O.2     1  LIG1       -0.5700
     23 C          14.7701  -35.6702  -11.8504 C.3     1  LIG1       -0.0970
     24 C          18.2887  -43.9664  -15.0565 C.3     1  LIG1        0.2580
     25 C          19.7839  -43.6657  -16.6047 C.3     1  LIG1        0.2580
     26 O          18.3980  -43.3097  -16.3471 O.3     1  LIG1       -0.5160
     27 H          15.5034  -31.2656  -12.3678 H       1  LIG1        0.1500
     28 H          16.8029  -32.8935   -8.6611 H       1  LIG1        0.1500
     29 H          15.2888  -35.3405   -8.4350 H       1  LIG1        0.4000
     30 H          17.2308  -35.7822   -7.5420 H       1  LIG1        0.0800
     31 H          17.9671  -34.7914   -8.8568 H       1  LIG1        0.0800
     32 H          16.0309  -38.1242   -9.2530 H       1  LIG1        0.1500
     33 H          17.3656  -39.9172  -10.5036 H       1  LIG1        0.1500
     34 H          18.9452  -41.0079  -11.2750 H       1  LIG1        0.3700
     35 C          21.6835  -42.3483  -11.2784 C.3     1  LIG1       -0.1600
     36 H          21.5480  -42.9858  -14.3855 H       1  LIG1        0.3700
     37 H          20.2182  -45.1162  -14.9380 H       1  LIG1        0.0000
     38 H          15.6010  -36.3748  -11.8711 H       1  LIG1        0.0800
     39 H          13.9762  -36.0132  -11.1890 H       1  LIG1        0.0800
     40 H          14.3820  -35.5190  -12.8582 H       1  LIG1        0.0800
     41 H          17.9355  -43.3189  -14.2661 H       1  LIG1        0.0000
     42 H          17.7724  -44.9153  -15.1105 H       1  LIG1        0.0000
     43 H          19.8844  -44.4911  -17.2971 H       1  LIG1        0.0000
     44 H          20.4158  -42.8196  -16.8372 H       1  LIG1        0.0000
     45 C          22.6036  -43.3420  -12.0314 C.3     1  LIG1       -0.0800
     46 H          21.0623  -42.8876  -10.5620 H       1  LIG1        0.0800
     47 H          22.2920  -41.6403  -10.7171 H       1  LIG1        0.0800
     48 C          23.4808  -42.6008  -13.0454 C.3     1  LIG1       -0.1600
     49 C          23.6832  -44.0066  -11.1663 C.3     1  LIG1       -0.1600
     50 C          24.7846  -42.9547  -11.0125 C.3     1  LIG1       -0.1600
     51 C          24.6622  -42.0483  -12.2413 C.3     1  LIG1       -0.1600
     52 H          22.0080  -44.0936  -12.5534 H       1  LIG1        0.0800
     53 H          22.9373  -41.8060  -13.5586 H       1  LIG1        0.0800
     54 H          23.8543  -43.3142  -13.7829 H       1  LIG1        0.0800
     55 H          24.0878  -44.8657  -11.7054 H       1  LIG1        0.0800
     56 H          23.3125  -44.3393  -10.1979 H       1  LIG1        0.0800
     57 H          25.7672  -43.4283  -10.9672 H       1  LIG1        0.0800
     58 H          24.6180  -42.3695  -10.1063 H       1  LIG1        0.0800
     59 H          25.5754  -42.0675  -12.8390 H       1  LIG1        0.0800
     60 H          24.4519  -41.0250  -11.9248 H       1  LIG1        0.0800
     61 H          21.3728  -41.0529  -12.9705 H       1  LIG1        0.0800
@<TRIPOS>BOND
     1     1     2   ar
     2     1     6   ar
     3     1    27    1
     4     2     3   ar
     5     3     4   ar
     6     3    23    1
     7     4     5   ar
     8     4     8    1
     9     5     6   ar
    10     5    28    1
    11     6     7    1
    12     8     9    1
    13     8    29    1
    14     9    10    1
    15     9    30    1
    16     9    31    1
    17    10    11   ar
    18    10    14   ar
    19    11    12   ar
    20    11    32    1
    21    12    13   ar
    22    12    33    1
    23    13    14   ar
    24    13    15    1
    25    15    16   am
    26    15    22    2
    27    16    17    1
    28    16    34    1
    29    17    18    1
    30    17    35    1
    31    17    61    1
    32    18    19    2
    33    18    20   am
    34    20    21    1
    35    20    36    1
    36    21    24    1
    37    21    25    1
    38    21    37    1
    39    23    38    1
    40    23    39    1
    41    23    40    1
    42    24    26    1
    43    24    41    1
    44    24    42    1
    45    25    26    1
    46    25    43    1
    47    25    44    1
    48    35    45    1
    49    35    46    1
    50    35    47    1
    51    45    48    1
    52    45    49    1
    53    45    52    1
    54    48    51    1
    55    48    53    1
    56    48    54    1
    57    49    50    1
    58    49    55    1
    59    49    56    1
    60    50    51    1
    61    50    57    1
    62    50    58    1
    63    51    59    1
    64    51    60    1
@<TRIPOS>SUBSTRUCTURE
     1 LIG1        1 TEMP              0 ****  ****    0 ROOT


##########                                Name:              G7.sdf
##########                        Cluster_Size:                   1
##########                          Grid_Score:          -44.727646
##########                     Grid_vdw_energy:          -39.345245
##########                      Grid_es_energy:           -5.382399
##########           Internal_energy_repulsive:           31.370152

@<TRIPOS>MOLECULE
G7.sdf
 61 64 1 0 0
SMALL
USER_CHARGES
****

@<TRIPOS>ATOM
      1 C          15.5617  -31.6349  -11.7326 C.ar    1  LIG1        0.1600
      2 N          14.9700  -32.7543  -12.1615 N.ar    1  LIG1       -0.6200
      3 C          14.9339  -33.8307  -11.3727 C.ar    1  LIG1        0.1660
      4 C          15.5004  -33.8057  -10.0805 C.ar    1  LIG1        0.1000
      5 C          16.1287  -32.6519   -9.6211 C.ar    1  LIG1       -0.1500
      6 C          16.1526  -31.5522  -10.4665 C.ar    1  LIG1        0.1770
      7 CL         16.9112  -30.0803   -9.9551 Cl      1  LIG1       -0.1770
      8 N          15.4540  -34.9414   -9.2472 N.pl3   1  LIG1       -0.8690
      9 C          16.7330  -35.5385   -8.8694 C.3     1  LIG1        0.3890
     10 C          16.8728  -36.7022   -9.8246 C.ar    1  LIG1       -0.1400
     11 C          16.2717  -37.9301   -9.7430 C.ar    1  LIG1       -0.1500
     12 C          16.6037  -38.7776  -10.8081 C.ar    1  LIG1       -0.1500
     13 C          17.4631  -38.1977  -11.7202 C.ar    1  LIG1       -0.0450
     14 S          17.8522  -36.5754  -11.2390 S.2     1  LIG1       -0.0800
     15 C          18.0192  -38.7673  -12.9374 C.2     1  LIG1        0.7150
     16 N          17.7063  -40.0643  -13.2479 N.am    1  LIG1       -0.7300
     17 C          18.1477  -40.8718  -14.4326 C.3     1  LIG1        0.2810
     18 C          17.0775  -41.8754  -14.9053 C.2     1  LIG1        0.5690
     19 O          16.2275  -42.3187  -14.1378 O.2     1  LIG1       -0.5700
     20 N          17.0599  -42.2927  -16.1964 N.am    1  LIG1       -0.6550
     21 C          16.0692  -43.2477  -16.7169 C.3     1  LIG1        0.2250
     22 O          18.7568  -38.1545  -13.7009 O.2     1  LIG1       -0.5700
     23 C          14.2536  -35.0655  -11.9203 C.3     1  LIG1       -0.0970
     24 C          16.6390  -44.1118  -17.8890 C.3     1  LIG1        0.2580
     25 C          15.9938  -44.5544  -15.8614 C.3     1  LIG1        0.2580
     26 O          16.7734  -45.1816  -16.9162 O.3     1  LIG1       -0.5160
     27 H          15.5795  -30.7948  -12.3772 H       1  LIG1        0.1500
     28 H          16.5879  -32.6161   -8.6698 H       1  LIG1        0.1500
     29 H          14.9187  -34.7645   -8.3827 H       1  LIG1        0.4000
     30 H          16.7215  -35.9050   -7.8515 H       1  LIG1        0.0800
     31 H          17.5331  -34.8322   -9.0528 H       1  LIG1        0.0800
     32 H          15.6162  -38.2059   -8.9557 H       1  LIG1        0.1500
     33 H          16.2231  -39.7613  -10.8981 H       1  LIG1        0.1500
     34 H          17.1161  -40.5598  -12.5720 H       1  LIG1        0.3700
     35 C          19.4713  -41.6297  -14.1401 C.3     1  LIG1       -0.1600
     36 H          17.9125  -42.1065  -16.7617 H       1  LIG1        0.3700
     37 H          15.1212  -42.7666  -16.9163 H       1  LIG1        0.0000
     38 H          14.9827  -35.8751  -11.9364 H       1  LIG1        0.0800
     39 H          13.4101  -35.3048  -11.2748 H       1  LIG1        0.0800
     40 H          13.9058  -34.8543  -12.9320 H       1  LIG1        0.0800
     41 H          17.5822  -43.7557  -18.2791 H       1  LIG1        0.0000
     42 H          15.9018  -44.3270  -18.6507 H       1  LIG1        0.0000
     43 H          14.9903  -44.9519  -15.7870 H       1  LIG1        0.0000
     44 H          16.5117  -44.4924  -14.9141 H       1  LIG1        0.0000
     45 C          19.2684  -42.6632  -13.0035 C.3     1  LIG1       -0.0800
     46 H          20.2306  -40.9025  -13.8495 H       1  LIG1        0.0800
     47 H          19.8287  -42.1368  -15.0356 H       1  LIG1        0.0800
     48 C          20.5746  -43.4102  -12.7157 C.3     1  LIG1       -0.1600
     49 C          18.9865  -42.0578  -11.6216 C.3     1  LIG1       -0.1600
     50 C          20.3485  -41.6010  -11.0930 C.3     1  LIG1       -0.1600
     51 C          21.3808  -42.4894  -11.7939 C.3     1  LIG1       -0.1600
     52 H          18.4950  -43.3839  -13.2761 H       1  LIG1        0.0800
     53 H          21.1244  -43.6471  -13.6278 H       1  LIG1        0.0800
     54 H          20.3464  -44.3360  -12.1835 H       1  LIG1        0.0800
     55 H          18.5975  -42.8400  -10.9664 H       1  LIG1        0.0800
     56 H          18.2744  -41.2345  -11.6508 H       1  LIG1        0.0800
     57 H          20.4001  -41.7156  -10.0085 H       1  LIG1        0.0800
     58 H          20.5213  -40.5567  -11.3595 H       1  LIG1        0.0800
     59 H          21.9533  -43.0750  -11.0722 H       1  LIG1        0.0800
     60 H          22.0587  -41.8707  -12.3850 H       1  LIG1        0.0800
     61 H          18.3152  -40.2032  -15.2654 H       1  LIG1        0.0800
@<TRIPOS>BOND
     1     1     2   ar
     2     1     6   ar
     3     1    27    1
     4     2     3   ar
     5     3     4   ar
     6     3    23    1
     7     4     5   ar
     8     4     8    1
     9     5     6   ar
    10     5    28    1
    11     6     7    1
    12     8     9    1
    13     8    29    1
    14     9    10    1
    15     9    30    1
    16     9    31    1
    17    10    11   ar
    18    10    14   ar
    19    11    12   ar
    20    11    32    1
    21    12    13   ar
    22    12    33    1
    23    13    14   ar
    24    13    15    1
    25    15    16   am
    26    15    22    2
    27    16    17    1
    28    16    34    1
    29    17    18    1
    30    17    35    1
    31    17    61    1
    32    18    19    2
    33    18    20   am
    34    20    21    1
    35    20    36    1
    36    21    24    1
    37    21    25    1
    38    21    37    1
    39    23    38    1
    40    23    39    1
    41    23    40    1
    42    24    26    1
    43    24    41    1
    44    24    42    1
    45    25    26    1
    46    25    43    1
    47    25    44    1
    48    35    45    1
    49    35    46    1
    50    35    47    1
    51    45    48    1
    52    45    49    1
    53    45    52    1
    54    48    51    1
    55    48    53    1
    56    48    54    1
    57    49    50    1
    58    49    55    1
    59    49    56    1
    60    50    51    1
    61    50    57    1
    62    50    58    1
    63    51    59    1
    64    51    60    1
@<TRIPOS>SUBSTRUCTURE
     1 LIG1        1 TEMP              0 ****  ****    0 ROOT


##########                                Name:              G9.sdf
##########                        Cluster_Size:                   3
##########                          Grid_Score:          -49.887001
##########                     Grid_vdw_energy:          -41.801716
##########                      Grid_es_energy:           -8.085284
##########           Internal_energy_repulsive:           23.518717

@<TRIPOS>MOLECULE
G9.sdf
 61 63 1 0 0
SMALL
USER_CHARGES
****

@<TRIPOS>ATOM
      1 C          15.4247  -33.6191  -13.0319 C.ar    1  LIG1       -0.1500
      2 C          15.2966  -34.9958  -13.1585 C.ar    1  LIG1        0.1600
      3 N          15.2933  -35.8076  -12.1008 N.ar    1  LIG1       -0.6200
      4 C          15.4117  -35.2778  -10.8800 C.ar    1  LIG1        0.4100
      5 C          15.5395  -33.9095  -10.6629 C.ar    1  LIG1       -0.1500
      6 C          15.5506  -33.0650  -11.7603 C.ar    1  LIG1        0.1770
      7 CL         15.7170  -31.3509  -11.5600 Cl      1  LIG1       -0.1770
      8 N          15.3967  -36.1324   -9.7957 N.pl3   1  LIG1       -0.8690
      9 C          16.5461  -36.1845   -8.8932 C.3     1  LIG1        0.3890
     10 C          17.6230  -36.8545   -9.7183 C.ar    1  LIG1       -0.1400
     11 C          18.9785  -36.7557   -9.5543 C.ar    1  LIG1       -0.1500
     12 C          19.7012  -37.5236  -10.4748 C.ar    1  LIG1       -0.1500
     13 C          18.8985  -38.2238  -11.3520 C.ar    1  LIG1       -0.0450
     14 S          17.2222  -37.9155  -11.0190 S.2     1  LIG1       -0.0800
     15 C          19.2924  -39.1200  -12.4276 C.2     1  LIG1        0.7150
     16 N          18.3407  -39.9547  -12.9534 N.am    1  LIG1       -0.7300
     17 C          18.5097  -40.9532  -14.0543 C.3     1  LIG1        0.2810
     18 C          17.8280  -40.4790  -15.3574 C.2     1  LIG1        0.5690
     19 O          17.3636  -39.3459  -15.4485 O.2     1  LIG1       -0.5700
     20 N          17.7414  -41.3213  -16.3907 N.am    1  LIG1       -0.7300
     21 C          17.1265  -41.0056  -17.6763 C.3     1  LIG1        0.1400
     22 O          20.4281  -39.1747  -12.8901 O.2     1  LIG1       -0.5700
     23 C          16.5808  -42.2827  -18.3246 C.3     1  LIG1        0.1100
     24 N          15.9459  -42.0080  -19.6356 N.3     1  LIG1       -0.9900
     25 H          15.4256  -32.9937  -13.8861 H       1  LIG1        0.1500
     26 H          15.1961  -35.4337  -14.1206 H       1  LIG1        0.1500
     27 H          15.6250  -33.5229   -9.6834 H       1  LIG1        0.1500
     28 H          14.5105  -36.1136   -9.2773 H       1  LIG1        0.4000
     29 H          16.3438  -36.7663   -8.0036 H       1  LIG1        0.0800
     30 H          16.8617  -35.1771   -8.6555 H       1  LIG1        0.0800
     31 H          19.4263  -36.1623   -8.7963 H       1  LIG1        0.1500
     32 H          20.7595  -37.5618  -10.4826 H       1  LIG1        0.1500
     33 H          17.4659  -40.0267  -12.4239 H       1  LIG1        0.3700
     34 C          17.9673  -42.3309  -13.5652 C.3     1  LIG1       -0.1600
     35 H          18.0461  -42.2775  -16.2206 H       1  LIG1        0.3700
     36 H          17.8527  -40.5462  -18.3498 H       1  LIG1        0.0800
     37 H          16.3050  -40.3047  -17.5230 H       1  LIG1        0.0800
     38 H          15.8523  -42.7379  -17.6503 H       1  LIG1        0.0800
     39 H          17.4133  -42.9787  -18.4544 H       1  LIG1        0.0800
     40 C          16.6135  -42.2339  -12.8208 C.3     1  LIG1       -0.0800
     41 H          18.6932  -42.8175  -12.9135 H       1  LIG1        0.0800
     42 H          17.8224  -42.9756  -14.4325 H       1  LIG1        0.0800
     43 H          19.5659  -41.0403  -14.2623 H       1  LIG1        0.0800
     44 C          16.7244  -41.9032  -11.3204 C.3     1  LIG1       -0.1600
     45 C          15.6020  -41.2883  -13.4977 C.3     1  LIG1       -0.1600
     46 C          14.2266  -41.3940  -12.8204 C.3     1  LIG1       -0.1600
     47 C          14.3293  -41.0986  -11.3165 C.3     1  LIG1       -0.1600
     48 C          15.3537  -42.0195  -10.6386 C.3     1  LIG1       -0.1600
     49 H          16.1855  -43.2377  -12.8819 H       1  LIG1        0.0800
     50 H          17.0807  -40.8820  -11.1844 H       1  LIG1        0.0800
     51 H          17.4252  -42.5883  -10.8405 H       1  LIG1        0.0800
     52 H          15.5007  -41.5516  -14.5513 H       1  LIG1        0.0800
     53 H          15.9407  -40.2547  -13.4244 H       1  LIG1        0.0800
     54 H          13.8288  -42.4002  -12.9626 H       1  LIG1        0.0800
     55 H          13.5388  -40.6836  -13.2815 H       1  LIG1        0.0800
     56 H          13.3518  -41.2392  -10.8517 H       1  LIG1        0.0800
     57 H          14.6317  -40.0595  -11.1736 H       1  LIG1        0.0800
     58 H          15.0057  -43.0529  -10.6930 H       1  LIG1        0.0800
     59 H          15.4489  -41.7426   -9.5869 H       1  LIG1        0.0800
     60 H          15.1746  -41.3635  -19.5232 H       1  LIG1        0.3600
     61 H          16.6176  -41.6157  -20.2817 H       1  LIG1        0.3600
@<TRIPOS>BOND
     1     1     2   ar
     2     1     6   ar
     3     1    25    1
     4     2     3   ar
     5     2    26    1
     6     3     4   ar
     7     4     5   ar
     8     4     8    1
     9     5     6   ar
    10     5    27    1
    11     6     7    1
    12     8     9    1
    13     8    28    1
    14     9    10    1
    15     9    29    1
    16     9    30    1
    17    10    11   ar
    18    10    14   ar
    19    11    12   ar
    20    11    31    1
    21    12    13   ar
    22    12    32    1
    23    13    14   ar
    24    13    15    1
    25    15    16   am
    26    15    22    2
    27    16    17    1
    28    16    33    1
    29    17    18    1
    30    17    34    1
    31    17    43    1
    32    18    19    2
    33    18    20   am
    34    20    21    1
    35    20    35    1
    36    21    23    1
    37    21    36    1
    38    21    37    1
    39    23    24    1
    40    23    38    1
    41    23    39    1
    42    24    60    1
    43    24    61    1
    44    34    40    1
    45    34    41    1
    46    34    42    1
    47    40    44    1
    48    40    45    1
    49    40    49    1
    50    44    48    1
    51    44    50    1
    52    44    51    1
    53    45    46    1
    54    45    52    1
    55    45    53    1
    56    46    47    1
    57    46    54    1
    58    46    55    1
    59    47    48    1
    60    47    56    1
    61    47    57    1
    62    48    58    1
    63    48    59    1
@<TRIPOS>SUBSTRUCTURE
     1 LIG1        1 TEMP              0 ****  ****    0 ROOT


##########                                Name:              G9.sdf
##########                        Cluster_Size:                   3
##########                          Grid_Score:          -48.487206
##########                     Grid_vdw_energy:          -45.924866
##########                      Grid_es_energy:           -2.562340
##########           Internal_energy_repulsive:           20.512077

@<TRIPOS>MOLECULE
G9.sdf
 61 63 1 0 0
SMALL
USER_CHARGES
****

@<TRIPOS>ATOM
      1 C          15.5341  -32.0011  -11.2961 C.ar    1  LIG1       -0.1500
      2 C          16.3177  -31.9345  -10.1519 C.ar    1  LIG1        0.1600
      3 N          16.6444  -33.0214   -9.4521 N.ar    1  LIG1       -0.6200
      4 C          16.2077  -34.2132   -9.8694 C.ar    1  LIG1        0.4100
      5 C          15.4226  -34.3704  -11.0072 C.ar    1  LIG1       -0.1500
      6 C          15.0760  -33.2422  -11.7315 C.ar    1  LIG1        0.1770
      7 CL         14.0917  -33.3674  -13.1532 Cl      1  LIG1       -0.1770
      8 N          16.5635  -35.3289   -9.1382 N.pl3   1  LIG1       -0.8690
      9 C          17.9719  -35.5864   -8.8409 C.3     1  LIG1        0.3890
     10 C          18.1367  -37.0634   -9.1248 C.ar    1  LIG1       -0.1400
     11 C          19.0764  -37.9109   -8.6024 C.ar    1  LIG1       -0.1500
     12 C          18.9400  -39.2288   -9.0538 C.ar    1  LIG1       -0.1500
     13 C          17.8850  -39.4012   -9.9265 C.ar    1  LIG1       -0.0450
     14 S          17.0573  -37.8961  -10.1831 S.2     1  LIG1       -0.0800
     15 C          17.4396  -40.6188  -10.5855 C.2     1  LIG1        0.7150
     16 N          16.3704  -40.5365  -11.4393 N.am    1  LIG1       -0.7300
     17 C          15.7403  -41.6441  -12.2226 C.3     1  LIG1        0.2810
     18 C          16.5184  -41.9281  -13.5270 C.2     1  LIG1        0.5690
     19 O          17.5896  -42.5279  -13.5031 O.2     1  LIG1       -0.5700
     20 N          16.0151  -41.5063  -14.6904 N.am    1  LIG1       -0.7300
     21 C          16.6422  -41.7062  -15.9932 C.3     1  LIG1        0.1400
     22 O          17.9634  -41.7164  -10.4195 O.2     1  LIG1       -0.5700
     23 C          16.2730  -40.5550  -16.9354 C.3     1  LIG1        0.1100
     24 N          16.8900  -40.7177  -18.2733 N.3     1  LIG1       -0.9900
     25 H          15.2865  -31.1245  -11.8355 H       1  LIG1        0.1500
     26 H          16.6779  -30.9964   -9.8086 H       1  LIG1        0.1500
     27 H          15.0991  -35.3287  -11.3129 H       1  LIG1        0.1500
     28 H          15.9702  -35.4791   -8.3136 H       1  LIG1        0.4000
     29 H          18.2186  -35.3769   -7.8083 H       1  LIG1        0.0800
     30 H          18.5920  -35.0255   -9.5275 H       1  LIG1        0.0800
     31 H          19.8226  -37.5932   -7.9172 H       1  LIG1        0.1500
     32 H          19.5841  -40.0099   -8.7432 H       1  LIG1        0.1500
     33 H          15.8379  -39.6612  -11.4075 H       1  LIG1        0.3700
     34 C          14.2470  -41.2810  -12.4865 C.3     1  LIG1       -0.1600
     35 H          15.1823  -40.9235  -14.6373 H       1  LIG1        0.3700
     36 H          16.3174  -42.6489  -16.4381 H       1  LIG1        0.0800
     37 H          17.7258  -41.7352  -15.8735 H       1  LIG1        0.0800
     38 H          16.6021  -39.6140  -16.4895 H       1  LIG1        0.0800
     39 H          15.1845  -40.5306  -17.0295 H       1  LIG1        0.0800
     40 C          13.9936  -39.7592  -12.6147 C.3     1  LIG1       -0.0800
     41 H          13.6117  -41.6780  -11.6946 H       1  LIG1        0.0800
     42 H          13.9352  -41.7480  -13.4211 H       1  LIG1        0.0800
     43 H          15.7876  -42.5414  -11.6233 H       1  LIG1        0.0800
     44 C          14.7289  -39.0791  -13.7849 C.3     1  LIG1       -0.1600
     45 C          12.4997  -39.3808  -12.6370 C.3     1  LIG1       -0.1600
     46 C          12.3275  -37.8553  -12.5667 C.3     1  LIG1       -0.1600
     47 C          13.0840  -37.1626  -13.7100 C.3     1  LIG1       -0.1600
     48 C          14.5685  -37.5540  -13.7107 C.3     1  LIG1       -0.1600
     49 H          14.4075  -39.3264  -11.7005 H       1  LIG1        0.0800
     50 H          14.3149  -39.4135  -14.7363 H       1  LIG1        0.0800
     51 H          15.7899  -39.3321  -13.7535 H       1  LIG1        0.0800
     52 H          11.9925  -39.8355  -11.7851 H       1  LIG1        0.0800
     53 H          12.0318  -39.7358  -13.5554 H       1  LIG1        0.0800
     54 H          12.7086  -37.4912  -11.6112 H       1  LIG1        0.0800
     55 H          11.2675  -37.6058  -12.6320 H       1  LIG1        0.0800
     56 H          12.9943  -36.0804  -13.6009 H       1  LIG1        0.0800
     57 H          12.6371  -37.4503  -14.6635 H       1  LIG1        0.0800
     58 H          15.0433  -37.1810  -12.8010 H       1  LIG1        0.0800
     59 H          15.0629  -37.0966  -14.5700 H       1  LIG1        0.0800
     60 H          16.5782  -41.5798  -18.7004 H       1  LIG1        0.3600
     61 H          16.6486  -39.9409  -18.8740 H       1  LIG1        0.3600
@<TRIPOS>BOND
     1     1     2   ar
     2     1     6   ar
     3     1    25    1
     4     2     3   ar
     5     2    26    1
     6     3     4   ar
     7     4     5   ar
     8     4     8    1
     9     5     6   ar
    10     5    27    1
    11     6     7    1
    12     8     9    1
    13     8    28    1
    14     9    10    1
    15     9    29    1
    16     9    30    1
    17    10    11   ar
    18    10    14   ar
    19    11    12   ar
    20    11    31    1
    21    12    13   ar
    22    12    32    1
    23    13    14   ar
    24    13    15    1
    25    15    16   am
    26    15    22    2
    27    16    17    1
    28    16    33    1
    29    17    18    1
    30    17    34    1
    31    17    43    1
    32    18    19    2
    33    18    20   am
    34    20    21    1
    35    20    35    1
    36    21    23    1
    37    21    36    1
    38    21    37    1
    39    23    24    1
    40    23    38    1
    41    23    39    1
    42    24    60    1
    43    24    61    1
    44    34    40    1
    45    34    41    1
    46    34    42    1
    47    40    44    1
    48    40    45    1
    49    40    49    1
    50    44    48    1
    51    44    50    1
    52    44    51    1
    53    45    46    1
    54    45    52    1
    55    45    53    1
    56    46    47    1
    57    46    54    1
    58    46    55    1
    59    47    48    1
    60    47    56    1
    61    47    57    1
    62    48    58    1
    63    48    59    1
@<TRIPOS>SUBSTRUCTURE
     1 LIG1        1 TEMP              0 ****  ****    0 ROOT


##########                                Name:              G9.sdf
##########                        Cluster_Size:                   1
##########                          Grid_Score:          -48.204998
##########                     Grid_vdw_energy:          -42.140682
##########                      Grid_es_energy:           -6.064314
##########           Internal_energy_repulsive:           40.176411

@<TRIPOS>MOLECULE
G9.sdf
 61 63 1 0 0
SMALL
USER_CHARGES
****

@<TRIPOS>ATOM
      1 C          15.0002  -33.2911  -11.8127 C.ar    1  LIG1       -0.1500
      2 C          14.7086  -34.6486  -11.8129 C.ar    1  LIG1        0.1600
      3 N          15.1216  -35.4625  -10.8409 N.ar    1  LIG1       -0.6200
      4 C          15.8344  -34.9534   -9.8320 C.ar    1  LIG1        0.4100
      5 C          16.1667  -33.6048   -9.7510 C.ar    1  LIG1       -0.1500
      6 C          15.7450  -32.7588  -10.7631 C.ar    1  LIG1        0.1770
      7 CL         16.1338  -31.0697  -10.7282 Cl      1  LIG1       -0.1770
      8 N          16.2457  -35.8088   -8.8293 N.pl3   1  LIG1       -0.8690
      9 C          17.6495  -35.8305   -8.4205 C.3     1  LIG1        0.3890
     10 C          18.3352  -36.6050   -9.5247 C.ar    1  LIG1       -0.1400
     11 C          18.7343  -36.1341  -10.7466 C.ar    1  LIG1       -0.1500
     12 C          19.3636  -37.1069  -11.5321 C.ar    1  LIG1       -0.1500
     13 C          19.4556  -38.3356  -10.9107 C.ar    1  LIG1       -0.0450
     14 S          18.7458  -38.2695   -9.3271 S.2     1  LIG1       -0.0800
     15 C          20.0451  -39.5667  -11.4128 C.2     1  LIG1        0.7150
     16 N          20.1485  -40.6299  -10.5539 N.am    1  LIG1       -0.7300
     17 C          20.7141  -41.9845  -10.8418 C.3     1  LIG1        0.2810
     18 C          22.1859  -41.8962  -11.3039 C.2     1  LIG1        0.5690
     19 O          22.4774  -41.9702  -12.4945 O.2     1  LIG1       -0.5700
     20 N          23.1476  -41.7441  -10.3891 N.am    1  LIG1       -0.7300
     21 C          24.5735  -41.6460  -10.6849 C.3     1  LIG1        0.1400
     22 O          20.4581  -39.7083  -12.5601 O.2     1  LIG1       -0.5700
     23 C          25.3914  -42.2114   -9.5184 C.3     1  LIG1        0.1100
     24 N          25.0743  -43.6365   -9.2620 N.3     1  LIG1       -0.9900
     25 H          14.6624  -32.6639  -12.5957 H       1  LIG1        0.1500
     26 H          14.1388  -35.0695  -12.6039 H       1  LIG1        0.1500
     27 H          16.7268  -33.2337   -8.9356 H       1  LIG1        0.1500
     28 H          15.6163  -35.8142   -8.0179 H       1  LIG1        0.4000
     29 H          17.7933  -36.3305   -7.4717 H       1  LIG1        0.0800
     30 H          18.0355  -34.8198   -8.4086 H       1  LIG1        0.0800
     31 H          18.5861  -35.1287  -11.0541 H       1  LIG1        0.1500
     32 H          19.7354  -36.9061  -12.5031 H       1  LIG1        0.1500
     33 H          19.9800  -40.4243   -9.5639 H       1  LIG1        0.3700
     34 C          19.8020  -42.6930  -11.8894 C.3     1  LIG1       -0.1600
     35 H          22.8567  -41.7972   -9.4152 H       1  LIG1        0.3700
     36 H          24.8631  -40.6066  -10.8524 H       1  LIG1        0.0800
     37 H          24.7970  -42.2171  -11.5867 H       1  LIG1        0.0800
     38 H          25.1852  -41.6209   -8.6232 H       1  LIG1        0.0800
     39 H          26.4507  -42.1059   -9.7654 H       1  LIG1        0.0800
     40 C          18.3406  -42.8774  -11.4132 C.3     1  LIG1       -0.0800
     41 H          20.2112  -43.6678  -12.1550 H       1  LIG1        0.0800
     42 H          19.7803  -42.0890  -12.7969 H       1  LIG1        0.0800
     43 H          20.7038  -42.5494   -9.9213 H       1  LIG1        0.0800
     44 C          17.5995  -41.5680  -11.0832 C.3     1  LIG1       -0.1600
     45 C          17.4869  -43.7447  -12.3590 C.3     1  LIG1       -0.1600
     46 C          16.1181  -44.0454  -11.7283 C.3     1  LIG1       -0.1600
     47 C          15.3825  -42.7472  -11.3640 C.3     1  LIG1       -0.1600
     48 C          16.2365  -41.8652  -10.4420 C.3     1  LIG1       -0.1600
     49 H          18.4177  -43.4304  -10.4737 H       1  LIG1        0.0800
     50 H          17.4236  -40.9942  -11.9932 H       1  LIG1        0.0800
     51 H          18.1974  -40.9663  -10.3968 H       1  LIG1        0.0800
     52 H          18.0007  -44.6857  -12.5591 H       1  LIG1        0.0800
     53 H          17.3216  -43.2264  -13.3038 H       1  LIG1        0.0800
     54 H          16.2581  -44.6442  -10.8268 H       1  LIG1        0.0800
     55 H          15.5120  -44.6185  -12.4314 H       1  LIG1        0.0800
     56 H          14.4429  -42.9905  -10.8648 H       1  LIG1        0.0800
     57 H          15.1537  -42.1947  -12.2772 H       1  LIG1        0.0800
     58 H          16.3855  -42.3742   -9.4877 H       1  LIG1        0.0800
     59 H          15.7134  -40.9257  -10.2537 H       1  LIG1        0.0800
     60 H          24.0947  -43.7418   -9.0335 H       1  LIG1        0.3600
     61 H          25.2909  -44.2012  -10.0723 H       1  LIG1        0.3600
@<TRIPOS>BOND
     1     1     2   ar
     2     1     6   ar
     3     1    25    1
     4     2     3   ar
     5     2    26    1
     6     3     4   ar
     7     4     5   ar
     8     4     8    1
     9     5     6   ar
    10     5    27    1
    11     6     7    1
    12     8     9    1
    13     8    28    1
    14     9    10    1
    15     9    29    1
    16     9    30    1
    17    10    11   ar
    18    10    14   ar
    19    11    12   ar
    20    11    31    1
    21    12    13   ar
    22    12    32    1
    23    13    14   ar
    24    13    15    1
    25    15    16   am
    26    15    22    2
    27    16    17    1
    28    16    33    1
    29    17    18    1
    30    17    34    1
    31    17    43    1
    32    18    19    2
    33    18    20   am
    34    20    21    1
    35    20    35    1
    36    21    23    1
    37    21    36    1
    38    21    37    1
    39    23    24    1
    40    23    38    1
    41    23    39    1
    42    24    60    1
    43    24    61    1
    44    34    40    1
    45    34    41    1
    46    34    42    1
    47    40    44    1
    48    40    45    1
    49    40    49    1
    50    44    48    1
    51    44    50    1
    52    44    51    1
    53    45    46    1
    54    45    52    1
    55    45    53    1
    56    46    47    1
    57    46    54    1
    58    46    55    1
    59    47    48    1
    60    47    56    1
    61    47    57    1
    62    48    58    1
    63    48    59    1
@<TRIPOS>SUBSTRUCTURE
     1 LIG1        1 TEMP              0 ****  ****    0 ROOT


##########                                Name:              G9.sdf
##########                        Cluster_Size:                   3
##########                          Grid_Score:          -47.806091
##########                     Grid_vdw_energy:          -39.500496
##########                      Grid_es_energy:           -8.305593
##########           Internal_energy_repulsive:            9.694579

@<TRIPOS>MOLECULE
G9.sdf
 61 63 1 0 0
SMALL
USER_CHARGES
****

@<TRIPOS>ATOM
      1 C          20.5525  -39.5904  -11.0971 C.ar    1  LIG1       -0.1500
      2 C          20.6852  -38.3435  -11.6933 C.ar    1  LIG1        0.1600
      3 N          20.3456  -37.2176  -11.0649 N.ar    1  LIG1       -0.6200
      4 C          19.8675  -37.2923   -9.8195 C.ar    1  LIG1        0.4100
      5 C          19.7071  -38.4994   -9.1465 C.ar    1  LIG1       -0.1500
      6 C          20.0522  -39.6707   -9.7997 C.ar    1  LIG1        0.1770
      7 CL         19.8673  -41.2089   -9.0217 Cl      1  LIG1       -0.1770
      8 N          19.5300  -36.1159   -9.1805 N.pl3   1  LIG1       -0.8690
      9 C          18.1476  -35.8836   -8.7643 C.3     1  LIG1        0.3890
     10 C          17.3483  -36.0982  -10.0309 C.ar    1  LIG1       -0.1400
     11 C          17.3673  -35.3330  -11.1660 C.ar    1  LIG1       -0.1500
     12 C          16.5233  -35.8192  -12.1712 C.ar    1  LIG1       -0.1500
     13 C          15.8520  -36.9701  -11.8119 C.ar    1  LIG1       -0.0450
     14 S          16.2835  -37.4459  -10.1985 S.2     1  LIG1       -0.0800
     15 C          14.9073  -37.7532  -12.5927 C.2     1  LIG1        0.7150
     16 N          14.3656  -38.8727  -12.0166 N.am    1  LIG1       -0.7300
     17 C          13.3823  -39.8251  -12.6198 C.3     1  LIG1        0.2810
     18 C          11.9314  -39.3202  -12.4541 C.2     1  LIG1        0.5690
     19 O          11.2666  -39.6278  -11.4684 O.2     1  LIG1       -0.5700
     20 N          11.3991  -38.5452  -13.4032 N.am    1  LIG1       -0.7300
     21 C          10.0456  -37.9997  -13.3743 C.3     1  LIG1        0.1400
     22 O          14.5691  -37.4716  -13.7387 O.2     1  LIG1       -0.5700
     23 C           9.5170  -37.8319  -14.8031 C.3     1  LIG1        0.1100
     24 N           9.4748  -39.1226  -15.5309 N.3     1  LIG1       -0.9900
     25 H          20.8278  -40.4713  -11.6155 H       1  LIG1        0.1500
     26 H          21.0683  -38.2647  -12.6804 H       1  LIG1        0.1500
     27 H          19.3317  -38.5225   -8.1592 H       1  LIG1        0.1500
     28 H          20.1954  -35.8490   -8.4452 H       1  LIG1        0.4000
     29 H          17.9936  -34.8787   -8.3937 H       1  LIG1        0.0800
     30 H          17.8611  -36.6320   -8.0373 H       1  LIG1        0.0800
     31 H          17.9721  -34.4663  -11.2675 H       1  LIG1        0.1500
     32 H          16.4237  -35.3464  -13.1135 H       1  LIG1        0.1500
     33 H          14.8081  -39.1882  -11.1475 H       1  LIG1        0.3700
     34 C          13.5994  -41.2332  -11.9863 C.3     1  LIG1       -0.1600
     35 H          11.9575  -38.4130  -14.2438 H       1  LIG1        0.3700
     36 H          10.0300  -37.0303  -12.8723 H       1  LIG1        0.0800
     37 H           9.3912  -38.6817  -12.8301 H       1  LIG1        0.0800
     38 H          10.1591  -37.1283  -15.3372 H       1  LIG1        0.0800
     39 H           8.5121  -37.4064  -14.7444 H       1  LIG1        0.0800
     40 C          15.0146  -41.8106  -12.2318 C.3     1  LIG1       -0.0800
     41 H          12.8605  -41.9401  -12.3642 H       1  LIG1        0.0800
     42 H          13.4564  -41.1555  -10.9081 H       1  LIG1        0.0800
     43 H          13.5808  -39.8776  -13.6802 H       1  LIG1        0.0800
     44 C          15.2593  -43.2018  -11.6174 C.3     1  LIG1       -0.1600
     45 C          15.4360  -41.8052  -13.7143 C.3     1  LIG1       -0.1600
     46 C          16.9131  -42.2044  -13.8576 C.3     1  LIG1       -0.1600
     47 C          17.1771  -43.5763  -13.2192 C.3     1  LIG1       -0.1600
     48 C          16.7367  -43.5983  -11.7487 C.3     1  LIG1       -0.1600
     49 H          15.6921  -41.1252  -11.7164 H       1  LIG1        0.0800
     50 H          14.6635  -43.9533  -12.1357 H       1  LIG1        0.0800
     51 H          14.9798  -43.1958  -10.5627 H       1  LIG1        0.0800
     52 H          15.2949  -40.8080  -14.1330 H       1  LIG1        0.0800
     53 H          14.8335  -42.5140  -14.2828 H       1  LIG1        0.0800
     54 H          17.5400  -41.4551  -13.3713 H       1  LIG1        0.0800
     55 H          17.1787  -42.2414  -14.9152 H       1  LIG1        0.0800
     56 H          18.2421  -43.8068  -13.2823 H       1  LIG1        0.0800
     57 H          16.6266  -44.3415  -13.7697 H       1  LIG1        0.0800
     58 H          17.3531  -42.9041  -11.1740 H       1  LIG1        0.0800
     59 H          16.8786  -44.6020  -11.3434 H       1  LIG1        0.0800
     60 H           8.8695  -39.7756  -15.0512 H       1  LIG1        0.3600
     61 H           9.1398  -38.9884  -16.4754 H       1  LIG1        0.3600
@<TRIPOS>BOND
     1     1     2   ar
     2     1     6   ar
     3     1    25    1
     4     2     3   ar
     5     2    26    1
     6     3     4   ar
     7     4     5   ar
     8     4     8    1
     9     5     6   ar
    10     5    27    1
    11     6     7    1
    12     8     9    1
    13     8    28    1
    14     9    10    1
    15     9    29    1
    16     9    30    1
    17    10    11   ar
    18    10    14   ar
    19    11    12   ar
    20    11    31    1
    21    12    13   ar
    22    12    32    1
    23    13    14   ar
    24    13    15    1
    25    15    16   am
    26    15    22    2
    27    16    17    1
    28    16    33    1
    29    17    18    1
    30    17    34    1
    31    17    43    1
    32    18    19    2
    33    18    20   am
    34    20    21    1
    35    20    35    1
    36    21    23    1
    37    21    36    1
    38    21    37    1
    39    23    24    1
    40    23    38    1
    41    23    39    1
    42    24    60    1
    43    24    61    1
    44    34    40    1
    45    34    41    1
    46    34    42    1
    47    40    44    1
    48    40    45    1
    49    40    49    1
    50    44    48    1
    51    44    50    1
    52    44    51    1
    53    45    46    1
    54    45    52    1
    55    45    53    1
    56    46    47    1
    57    46    54    1
    58    46    55    1
    59    47    48    1
    60    47    56    1
    61    47    57    1
    62    48    58    1
    63    48    59    1
@<TRIPOS>SUBSTRUCTURE
     1 LIG1        1 TEMP              0 ****  ****    0 ROOT


##########                                Name:              G6.sdf
##########                        Cluster_Size:                   8
##########                          Grid_Score:          -50.731983
##########                     Grid_vdw_energy:          -46.352982
##########                      Grid_es_energy:           -4.379001
##########           Internal_energy_repulsive:           21.923830

@<TRIPOS>MOLECULE
G6.sdf
 61 63 1 0 0
SMALL
USER_CHARGES
****

@<TRIPOS>ATOM
      1 C          19.3588  -42.6490  -18.5798 C.ar    1  LIG1       -0.1500
      2 C          18.8550  -42.4554  -17.2953 C.ar    1  LIG1       -0.1500
      3 C          17.7192  -41.6748  -17.0987 C.ar    1  LIG1       -0.1500
      4 C          17.0902  -41.0822  -18.1980 C.ar    1  LIG1        0.1000
      5 C          17.5781  -41.2799  -19.4870 C.ar    1  LIG1       -0.1500
      6 C          18.7178  -42.0594  -19.6733 C.ar    1  LIG1        0.1770
      7 CL         19.3456  -42.2974  -21.2704 Cl      1  LIG1       -0.1770
      8 N          15.9526  -40.2890  -18.0292 N.pl3   1  LIG1       -0.8690
      9 C          15.4654  -40.1179  -16.6610 C.3     1  LIG1        0.3890
     10 C          16.1736  -38.8717  -16.1763 C.ar    1  LIG1       -0.1400
     11 C          16.5473  -37.7808  -16.9159 C.ar    1  LIG1       -0.1500
     12 C          17.1649  -36.7840  -16.1510 C.ar    1  LIG1       -0.1500
     13 C          17.2630  -37.1033  -14.8125 C.ar    1  LIG1       -0.0450
     14 S          16.5888  -38.6747  -14.5124 S.2     1  LIG1       -0.0800
     15 C          17.8084  -36.3090  -13.7257 C.2     1  LIG1        0.7150
     16 N          17.6706  -36.7649  -12.4459 N.am    1  LIG1       -0.7300
     17 C          18.2034  -36.0038  -11.2934 C.3     1  LIG1        0.2810
     18 C          19.0843  -36.9429  -10.4442 C.2     1  LIG1        0.5690
     19 C          16.9949  -35.5117  -10.4589 C.3     1  LIG1       -0.1600
     20 O          20.1875  -36.6218  -10.0082 O.2     1  LIG1       -0.5700
     21 N          18.5507  -38.1274  -10.1273 N.am    1  LIG1       -0.7300
     22 C          19.2222  -39.1528   -9.3331 C.3     1  LIG1        0.1400
     23 C          20.0478  -40.0645  -10.2436 C.3     1  LIG1        0.1200
     24 O          21.0122  -39.2885  -10.9389 O.3     1  LIG1       -0.5600
     25 C          21.8179  -40.0724  -11.8064 C.3     1  LIG1        0.0400
     26 C          16.5486  -34.1213  -10.9568 C.3     1  LIG1       -0.0800
     27 C          15.9196  -33.2270   -9.8852 C.3     1  LIG1       -0.1600
     28 C          15.1103  -32.1889  -10.6693 C.3     1  LIG1       -0.1600
     29 C          14.8713  -32.7979  -12.0562 C.3     1  LIG1       -0.1600
     30 C          15.4132  -34.2243  -11.9747 C.3     1  LIG1       -0.1600
     31 O          18.4245  -35.2561  -13.8772 O.2     1  LIG1       -0.5700
     32 H          20.2225  -43.2412  -18.7354 H       1  LIG1        0.1500
     33 H          19.3342  -42.9097  -16.4655 H       1  LIG1        0.1500
     34 H          17.3228  -41.5429  -16.1268 H       1  LIG1        0.1500
     35 H          17.0956  -40.8381  -20.3180 H       1  LIG1        0.1500
     36 H          16.0809  -39.3500  -18.4387 H       1  LIG1        0.4000
     37 H          15.7340  -40.9582  -16.0361 H       1  LIG1        0.0800
     38 H          14.3993  -39.9325  -16.6766 H       1  LIG1        0.0800
     39 H          16.3757  -37.6968  -17.9588 H       1  LIG1        0.1500
     40 H          17.5152  -35.8745  -16.5668 H       1  LIG1        0.1500
     41 H          17.5456  -37.7740  -12.3160 H       1  LIG1        0.3700
     42 H          18.8058  -35.1678  -11.6233 H       1  LIG1        0.0800
     43 H          17.2889  -35.4451   -9.4109 H       1  LIG1        0.0800
     44 H          16.1699  -36.2213  -10.5419 H       1  LIG1        0.0800
     45 H          17.5754  -38.2711  -10.3709 H       1  LIG1        0.3700
     46 H          18.4943  -39.7597   -8.7893 H       1  LIG1        0.0800
     47 H          19.8901  -38.6815   -8.6112 H       1  LIG1        0.0800
     48 H          19.3806  -40.5529  -10.9556 H       1  LIG1        0.0800
     49 H          20.5370  -40.8221   -9.6278 H       1  LIG1        0.0800
     50 H          22.5377  -39.4255  -12.3085 H       1  LIG1        0.0800
     51 H          22.3635  -40.8280  -11.2389 H       1  LIG1        0.0800
     52 H          21.1995  -40.5605  -12.5614 H       1  LIG1        0.0800
     53 H          17.3844  -33.5926  -11.4221 H       1  LIG1        0.0800
     54 H          16.6789  -32.7446   -9.2669 H       1  LIG1        0.0800
     55 H          15.2429  -33.8134   -9.2598 H       1  LIG1        0.0800
     56 H          15.6814  -31.2644  -10.7686 H       1  LIG1        0.0800
     57 H          14.1649  -31.9854  -10.1639 H       1  LIG1        0.0800
     58 H          15.4343  -32.2330  -12.8016 H       1  LIG1        0.0800
     59 H          13.8104  -32.7963  -12.3146 H       1  LIG1        0.0800
     60 H          15.7724  -34.5711  -12.9453 H       1  LIG1        0.0800
     61 H          14.6328  -34.8910  -11.6029 H       1  LIG1        0.0800
@<TRIPOS>BOND
     1     1     2   ar
     2     1     6   ar
     3     1    32    1
     4     2     3   ar
     5     2    33    1
     6     3     4   ar
     7     3    34    1
     8     4     5   ar
     9     4     8    1
    10     5     6   ar
    11     5    35    1
    12     6     7    1
    13     8     9    1
    14     8    36    1
    15     9    10    1
    16     9    37    1
    17     9    38    1
    18    10    11   ar
    19    10    14   ar
    20    11    12   ar
    21    11    39    1
    22    12    13   ar
    23    12    40    1
    24    13    14   ar
    25    13    15    1
    26    15    16   am
    27    15    31    2
    28    16    17    1
    29    16    41    1
    30    17    18    1
    31    17    19    1
    32    17    42    1
    33    18    20    2
    34    18    21   am
    35    19    26    1
    36    19    43    1
    37    19    44    1
    38    21    22    1
    39    21    45    1
    40    22    23    1
    41    22    46    1
    42    22    47    1
    43    23    24    1
    44    23    48    1
    45    23    49    1
    46    24    25    1
    47    25    50    1
    48    25    51    1
    49    25    52    1
    50    26    27    1
    51    26    30    1
    52    26    53    1
    53    27    28    1
    54    27    54    1
    55    27    55    1
    56    28    29    1
    57    28    56    1
    58    28    57    1
    59    29    30    1
    60    29    58    1
    61    29    59    1
    62    30    60    1
    63    30    61    1
@<TRIPOS>SUBSTRUCTURE
     1 LIG1        1 TEMP              0 ****  ****    0 ROOT


##########                                Name:              G6.sdf
##########                        Cluster_Size:                   1
##########                          Grid_Score:          -49.047470
##########                     Grid_vdw_energy:          -42.632797
##########                      Grid_es_energy:           -6.414671
##########           Internal_energy_repulsive:           75.981628

@<TRIPOS>MOLECULE
G6.sdf
 61 63 1 0 0
SMALL
USER_CHARGES
****

@<TRIPOS>ATOM
      1 C          15.2094  -32.2175  -11.4010 C.ar    1  LIG1       -0.1500
      2 C          15.8946  -32.1797  -10.1885 C.ar    1  LIG1       -0.1500
      3 C          16.3293  -33.3602   -9.5924 C.ar    1  LIG1       -0.1500
      4 C          16.0693  -34.5846  -10.2158 C.ar    1  LIG1        0.1000
      5 C          15.3966  -34.6326  -11.4339 C.ar    1  LIG1       -0.1500
      6 C          14.9619  -33.4460  -12.0207 C.ar    1  LIG1        0.1770
      7 CL         14.1073  -33.4939  -13.5269 Cl      1  LIG1       -0.1770
      8 N          16.4884  -35.7850   -9.6370 N.pl3   1  LIG1       -0.8690
      9 C          17.8634  -35.8332   -9.1414 C.3     1  LIG1        0.3890
     10 C          18.3158  -37.2414   -9.4611 C.ar    1  LIG1       -0.1400
     11 C          19.2456  -37.9932   -8.7926 C.ar    1  LIG1       -0.1500
     12 C          19.4125  -39.2721   -9.3375 C.ar    1  LIG1       -0.1500
     13 C          18.6029  -39.5120  -10.4284 C.ar    1  LIG1       -0.0450
     14 S          17.6344  -38.1157  -10.7843 S.2     1  LIG1       -0.0800
     15 C          18.4805  -40.7227  -11.2213 C.2     1  LIG1        0.7150
     16 N          17.3993  -40.8624  -12.0437 N.am    1  LIG1       -0.7300
     17 C          17.2148  -42.0712  -12.8781 C.3     1  LIG1        0.2810
     18 C          17.2992  -41.6653  -14.3636 C.2     1  LIG1        0.5690
     19 C          15.8112  -42.6462  -12.5643 C.3     1  LIG1       -0.1600
     20 O          17.9311  -40.6892  -14.7614 O.2     1  LIG1       -0.5700
     21 N          16.7038  -42.4862  -15.2353 N.am    1  LIG1       -0.7300
     22 C          16.6721  -42.2782  -16.6806 C.3     1  LIG1        0.1400
     23 C          16.6174  -43.6259  -17.4034 C.3     1  LIG1        0.1200
     24 O          16.5871  -43.4080  -18.8060 O.3     1  LIG1       -0.5600
     25 C          17.7306  -42.7071  -19.2722 C.3     1  LIG1        0.0400
     26 C          14.7532  -41.5287  -12.6735 C.3     1  LIG1       -0.0800
     27 C          15.1234  -40.3842  -13.6205 C.3     1  LIG1       -0.1600
     28 C          14.2418  -39.2116  -13.1786 C.3     1  LIG1       -0.1600
     29 C          13.8088  -39.5255  -11.7414 C.3     1  LIG1       -0.1600
     30 C          14.5783  -40.7860  -11.3492 C.3     1  LIG1       -0.1600
     31 O          19.3085  -41.6313  -11.2327 O.2     1  LIG1       -0.5700
     32 H          14.8760  -31.3230  -11.8589 H       1  LIG1        0.1500
     33 H          16.0918  -31.2481   -9.7216 H       1  LIG1        0.1500
     34 H          16.8675  -33.3329   -8.6820 H       1  LIG1        0.1500
     35 H          15.2088  -35.5590  -11.9081 H       1  LIG1        0.1500
     36 H          15.8645  -36.0726   -8.8662 H       1  LIG1        0.4000
     37 H          17.9064  -35.6684   -8.0737 H       1  LIG1        0.0800
     38 H          18.4737  -35.1334   -9.6973 H       1  LIG1        0.0800
     39 H          19.7756  -37.6448   -7.9430 H       1  LIG1        0.1500
     40 H          20.0927  -39.9814   -8.9414 H       1  LIG1        0.1500
     41 H          16.9353  -40.0055  -12.3618 H       1  LIG1        0.3700
     42 H          17.9828  -42.8058  -12.6752 H       1  LIG1        0.0800
     43 H          15.8099  -43.0499  -11.5512 H       1  LIG1        0.0800
     44 H          15.5748  -43.4543  -13.2586 H       1  LIG1        0.0800
     45 H          16.3436  -43.3619  -14.8684 H       1  LIG1        0.3700
     46 H          17.5590  -41.7333  -17.0128 H       1  LIG1        0.0800
     47 H          15.7878  -41.7000  -16.9507 H       1  LIG1        0.0800
     48 H          15.7185  -44.1597  -17.0910 H       1  LIG1        0.0800
     49 H          17.4987  -44.2073  -17.1248 H       1  LIG1        0.0800
     50 H          17.6503  -42.5678  -20.3505 H       1  LIG1        0.0800
     51 H          17.7954  -41.7270  -18.7970 H       1  LIG1        0.0800
     52 H          18.6374  -43.2755  -19.0590 H       1  LIG1        0.0800
     53 H          13.7856  -41.9423  -12.9693 H       1  LIG1        0.0800
     54 H          14.9318  -40.6460  -14.6626 H       1  LIG1        0.0800
     55 H          16.1735  -40.1149  -13.4877 H       1  LIG1        0.0800
     56 H          13.3613  -39.1414  -13.8193 H       1  LIG1        0.0800
     57 H          14.8043  -38.2776  -13.2218 H       1  LIG1        0.0800
     58 H          12.7364  -39.7288  -11.7226 H       1  LIG1        0.0800
     59 H          14.0405  -38.6993  -11.0661 H       1  LIG1        0.0800
     60 H          14.0237  -41.3827  -10.6228 H       1  LIG1        0.0800
     61 H          15.5520  -40.5077  -10.9416 H       1  LIG1        0.0800
@<TRIPOS>BOND
     1     1     2   ar
     2     1     6   ar
     3     1    32    1
     4     2     3   ar
     5     2    33    1
     6     3     4   ar
     7     3    34    1
     8     4     5   ar
     9     4     8    1
    10     5     6   ar
    11     5    35    1
    12     6     7    1
    13     8     9    1
    14     8    36    1
    15     9    10    1
    16     9    37    1
    17     9    38    1
    18    10    11   ar
    19    10    14   ar
    20    11    12   ar
    21    11    39    1
    22    12    13   ar
    23    12    40    1
    24    13    14   ar
    25    13    15    1
    26    15    16   am
    27    15    31    2
    28    16    17    1
    29    16    41    1
    30    17    18    1
    31    17    19    1
    32    17    42    1
    33    18    20    2
    34    18    21   am
    35    19    26    1
    36    19    43    1
    37    19    44    1
    38    21    22    1
    39    21    45    1
    40    22    23    1
    41    22    46    1
    42    22    47    1
    43    23    24    1
    44    23    48    1
    45    23    49    1
    46    24    25    1
    47    25    50    1
    48    25    51    1
    49    25    52    1
    50    26    27    1
    51    26    30    1
    52    26    53    1
    53    27    28    1
    54    27    54    1
    55    27    55    1
    56    28    29    1
    57    28    56    1
    58    28    57    1
    59    29    30    1
    60    29    58    1
    61    29    59    1
    62    30    60    1
    63    30    61    1
@<TRIPOS>SUBSTRUCTURE
     1 LIG1        1 TEMP              0 ****  ****    0 ROOT


##########                                Name:              G6.sdf
##########                        Cluster_Size:                   1
##########                          Grid_Score:          -48.767159
##########                     Grid_vdw_energy:          -41.892311
##########                      Grid_es_energy:           -6.874848
##########           Internal_energy_repulsive:           30.229300

@<TRIPOS>MOLECULE
G6.sdf
 61 63 1 0 0
SMALL
USER_CHARGES
****

@<TRIPOS>ATOM
      1 C          15.6645  -31.7871  -11.4926 C.ar    1  LIG1       -0.1500
      2 C          16.3052  -31.6265  -10.2659 C.ar    1  LIG1       -0.1500
      3 C          16.4703  -32.7152   -9.4141 C.ar    1  LIG1       -0.1500
      4 C          15.9845  -33.9697   -9.7954 C.ar    1  LIG1        0.1000
      5 C          15.3541  -34.1436  -11.0246 C.ar    1  LIG1       -0.1500
      6 C          15.1900  -33.0471  -11.8685 C.ar    1  LIG1        0.1770
      7 CL         14.3905  -33.2467  -13.3925 Cl      1  LIG1       -0.1770
      8 N          16.1308  -35.0781   -8.9576 N.pl3   1  LIG1       -0.8690
      9 C          17.4816  -35.6188   -8.8095 C.3     1  LIG1        0.3890
     10 C          17.4225  -36.9471   -9.5318 C.ar    1  LIG1       -0.1400
     11 C          16.3336  -37.7617   -9.6968 C.ar    1  LIG1       -0.1500
     12 C          16.6168  -38.9133  -10.4410 C.ar    1  LIG1       -0.1500
     13 C          17.9296  -38.9857  -10.8588 C.ar    1  LIG1       -0.0450
     14 S          18.8213  -37.6048  -10.3003 S.2     1  LIG1       -0.0800
     15 C          18.5712  -40.0066  -11.6685 C.2     1  LIG1        0.7150
     16 N          17.8714  -40.5609  -12.7019 N.am    1  LIG1       -0.7300
     17 C          18.4667  -41.6056  -13.5652 C.3     1  LIG1        0.2810
     18 C          18.0591  -41.3316  -15.0272 C.2     1  LIG1        0.5690
     19 C          17.9010  -42.9718  -13.1040 C.3     1  LIG1       -0.1600
     20 O          18.7207  -41.7050  -15.9933 O.2     1  LIG1       -0.5700
     21 N          16.8833  -40.7211  -15.2084 N.am    1  LIG1       -0.7300
     22 C          16.3214  -40.3751  -16.5114 C.3     1  LIG1        0.1400
     23 C          15.4477  -39.1246  -16.3906 C.3     1  LIG1        0.1200
     24 O          14.3901  -39.3746  -15.4771 O.3     1  LIG1       -0.5600
     25 C          13.5346  -38.2530  -15.3156 C.3     1  LIG1        0.0400
     26 C          16.3628  -42.9664  -13.2224 C.3     1  LIG1       -0.0800
     27 C          15.6579  -41.8965  -12.3845 C.3     1  LIG1       -0.1600
     28 C          14.2182  -42.4000  -12.2400 C.3     1  LIG1       -0.1600
     29 C          14.2667  -43.9071  -12.5191 C.3     1  LIG1       -0.1600
     30 C          15.7493  -44.2486  -12.6608 C.3     1  LIG1       -0.1600
     31 O          19.7281  -40.3912  -11.5113 O.2     1  LIG1       -0.5700
     32 H          15.5357  -30.9627  -12.1444 H       1  LIG1        0.1500
     33 H          16.6745  -30.6735   -9.9832 H       1  LIG1        0.1500
     34 H          16.9744  -32.6003   -8.4912 H       1  LIG1        0.1500
     35 H          14.9954  -35.0951  -11.3149 H       1  LIG1        0.1500
     36 H          15.7602  -34.8906   -8.0124 H       1  LIG1        0.4000
     37 H          17.7336  -35.7779   -7.7703 H       1  LIG1        0.0800
     38 H          18.1875  -34.9742   -9.3168 H       1  LIG1        0.0800
     39 H          15.3727  -37.5364   -9.3094 H       1  LIG1        0.1500
     40 H          15.8872  -39.6494  -10.6611 H       1  LIG1        0.1500
     41 H          17.1080  -40.0077  -13.1045 H       1  LIG1        0.3700
     42 H          19.5467  -41.5972  -13.4990 H       1  LIG1        0.0800
     43 H          18.1847  -43.1425  -12.0649 H       1  LIG1        0.0800
     44 H          18.3203  -43.7746  -13.7129 H       1  LIG1        0.0800
     45 H          16.3038  -40.5881  -14.3851 H       1  LIG1        0.3700
     46 H          15.7143  -41.1957  -16.9014 H       1  LIG1        0.0800
     47 H          17.1268  -40.1725  -17.2183 H       1  LIG1        0.0800
     48 H          15.0402  -38.8804  -17.3728 H       1  LIG1        0.0800
     49 H          16.0690  -38.2974  -16.0408 H       1  LIG1        0.0800
     50 H          12.7470  -38.5027  -14.6043 H       1  LIG1        0.0800
     51 H          14.0953  -37.3996  -14.9308 H       1  LIG1        0.0800
     52 H          13.0743  -37.9861  -16.2684 H       1  LIG1        0.0800
     53 H          16.0576  -42.8648  -14.2670 H       1  LIG1        0.0800
     54 H          15.6834  -40.9208  -12.8733 H       1  LIG1        0.0800
     55 H          16.1182  -41.8336  -11.3960 H       1  LIG1        0.0800
     56 H          13.5743  -41.9121  -12.9735 H       1  LIG1        0.0800
     57 H          13.8467  -42.2010  -11.2335 H       1  LIG1        0.0800
     58 H          13.7496  -44.1184  -13.4570 H       1  LIG1        0.0800
     59 H          13.8093  -44.4774  -11.7080 H       1  LIG1        0.0800
     60 H          15.9015  -45.0958  -13.3320 H       1  LIG1        0.0800
     61 H          16.1693  -44.4683  -11.6775 H       1  LIG1        0.0800
@<TRIPOS>BOND
     1     1     2   ar
     2     1     6   ar
     3     1    32    1
     4     2     3   ar
     5     2    33    1
     6     3     4   ar
     7     3    34    1
     8     4     5   ar
     9     4     8    1
    10     5     6   ar
    11     5    35    1
    12     6     7    1
    13     8     9    1
    14     8    36    1
    15     9    10    1
    16     9    37    1
    17     9    38    1
    18    10    11   ar
    19    10    14   ar
    20    11    12   ar
    21    11    39    1
    22    12    13   ar
    23    12    40    1
    24    13    14   ar
    25    13    15    1
    26    15    16   am
    27    15    31    2
    28    16    17    1
    29    16    41    1
    30    17    18    1
    31    17    19    1
    32    17    42    1
    33    18    20    2
    34    18    21   am
    35    19    26    1
    36    19    43    1
    37    19    44    1
    38    21    22    1
    39    21    45    1
    40    22    23    1
    41    22    46    1
    42    22    47    1
    43    23    24    1
    44    23    48    1
    45    23    49    1
    46    24    25    1
    47    25    50    1
    48    25    51    1
    49    25    52    1
    50    26    27    1
    51    26    30    1
    52    26    53    1
    53    27    28    1
    54    27    54    1
    55    27    55    1
    56    28    29    1
    57    28    56    1
    58    28    57    1
    59    29    30    1
    60    29    58    1
    61    29    59    1
    62    30    60    1
    63    30    61    1
@<TRIPOS>SUBSTRUCTURE
     1 LIG1        1 TEMP              0 ****  ****    0 ROOT


##########                                Name:             G2.****
##########                        Cluster_Size:                  10
##########                          Grid_Score:          -48.492237
##########                     Grid_vdw_energy:          -43.671749
##########                      Grid_es_energy:           -4.820487
##########           Internal_energy_repulsive:           63.259720

@<TRIPOS>MOLECULE
G2.****
 64 66 1 0 0
SMALL
USER_CHARGES
****

@<TRIPOS>ATOM
      1 C          15.3043  -32.5021  -11.4093 C.ar    1  LIG1       -0.1500
      2 C          14.8215  -33.7714  -11.7178 C.ar    1  LIG1       -0.1500
      3 C          15.1683  -34.8642  -10.9279 C.ar    1  LIG1       -0.1500
      4 C          16.0079  -34.6793   -9.8256 C.ar    1  LIG1        0.1000
      5 C          16.4858  -33.4120   -9.5003 C.ar    1  LIG1       -0.1500
      6 C          16.1356  -32.3258  -10.2987 C.ar    1  LIG1        0.1770
      7 CL         16.7378  -30.7469   -9.9157 Cl      1  LIG1       -0.1770
      8 N          16.3774  -35.7582   -9.0191 N.pl3   1  LIG1       -0.8690
      9 C          17.7826  -35.8314   -8.6200 C.3     1  LIG1        0.3890
     10 C          18.2193  -37.2064   -9.0755 C.ar    1  LIG1       -0.1400
     11 C          19.2086  -37.9900   -8.5426 C.ar    1  LIG1       -0.1500
     12 C          19.3409  -39.2243   -9.1880 C.ar    1  LIG1       -0.1500
     13 C          18.4429  -39.4000  -10.2203 C.ar    1  LIG1       -0.0450
     14 S          17.4355  -37.9976  -10.3956 S.2     1  LIG1       -0.0800
     15 C          18.2645  -40.5557  -11.0834 C.2     1  LIG1        0.7150
     16 N          17.2865  -40.5197  -12.0341 N.am    1  LIG1       -0.7300
     17 O          18.9628  -41.5663  -11.0417 O.2     1  LIG1       -0.5700
     18 C          17.0496  -41.6605  -12.9465 C.3     1  LIG1        0.2810
     19 C          18.0794  -41.5987  -14.0934 C.2     1  LIG1        0.5690
     20 C          15.6149  -41.5175  -13.5153 C.3     1  LIG1       -0.1600
     21 C          15.3833  -40.0978  -14.0870 C.3     1  LIG1       -0.0800
     22 C          14.7881  -39.2217  -12.9675 C.3     1  LIG1       -0.1600
     23 C          14.5397  -37.7841  -13.4444 C.3     1  LIG1       -0.1600
     24 C          15.8351  -37.1528  -13.9690 C.3     1  LIG1       -0.1600
     25 C          16.4378  -38.0090  -15.0894 C.3     1  LIG1       -0.1600
     26 C          16.6802  -39.4497  -14.6174 C.3     1  LIG1       -0.1600
     27 O          19.1906  -41.0876  -13.9759 O.2     1  LIG1       -0.5700
     28 N          17.7350  -42.2100  -15.2317 N.am    1  LIG1       -0.7300
     29 C          18.5696  -42.2641  -16.4294 C.3     1  LIG1        0.1400
     30 C          17.6901  -42.3341  -17.6793 C.3     1  LIG1        0.1200
     31 O          18.5140  -42.3860  -18.8344 O.3     1  LIG1       -0.5600
     32 C          17.7627  -42.4514  -20.0366 C.3     1  LIG1        0.0400
     33 H          15.0441  -31.6668  -12.0068 H       1  LIG1        0.1500
     34 H          14.1832  -33.9059  -12.5539 H       1  LIG1        0.1500
     35 H          14.7875  -35.8265  -11.1493 H       1  LIG1        0.1500
     36 H          17.1119  -33.2732   -8.6606 H       1  LIG1        0.1500
     37 H          15.8029  -35.8065   -8.1631 H       1  LIG1        0.4000
     38 H          17.8960  -35.7466   -7.5477 H       1  LIG1        0.0800
     39 H          18.3514  -35.0852   -9.1600 H       1  LIG1        0.0800
     40 H          19.8066  -37.6924   -7.7182 H       1  LIG1        0.1500
     41 H          20.0580  -39.9493   -8.9012 H       1  LIG1        0.1500
     42 H          16.9745  -39.5980  -12.3566 H       1  LIG1        0.3700
     43 H          17.1712  -42.6034  -12.4302 H       1  LIG1        0.0800
     44 H          14.8942  -41.7097  -12.7188 H       1  LIG1        0.0800
     45 H          15.4654  -42.2640  -14.2981 H       1  LIG1        0.0800
     46 H          14.6560  -40.1391  -14.9006 H       1  LIG1        0.0800
     47 H          15.4737  -39.1992  -12.1177 H       1  LIG1        0.0800
     48 H          13.8419  -39.6482  -12.6325 H       1  LIG1        0.0800
     49 H          14.1568  -37.1874  -12.6146 H       1  LIG1        0.0800
     50 H          13.7920  -37.7896  -14.2396 H       1  LIG1        0.0800
     51 H          16.5543  -37.0680  -13.1513 H       1  LIG1        0.0800
     52 H          15.6250  -36.1522  -14.3494 H       1  LIG1        0.0800
     53 H          17.3833  -37.5697  -15.4118 H       1  LIG1        0.0800
     54 H          15.7566  -38.0190  -15.9417 H       1  LIG1        0.0800
     55 H          17.4344  -39.4443  -13.8280 H       1  LIG1        0.0800
     56 H          17.0662  -40.0193  -15.4629 H       1  LIG1        0.0800
     57 H          16.8810  -42.7605  -15.2173 H       1  LIG1        0.3700
     58 H          19.2233  -43.1380  -16.4060 H       1  LIG1        0.0800
     59 H          19.1901  -41.3688  -16.4875 H       1  LIG1        0.0800
     60 H          17.0548  -41.4474  -17.7172 H       1  LIG1        0.0800
     61 H          17.0636  -43.2260  -17.6154 H       1  LIG1        0.0800
     62 H          18.4461  -42.4919  -20.8856 H       1  LIG1        0.0800
     63 H          17.1398  -43.3481  -20.0470 H       1  LIG1        0.0800
     64 H          17.1303  -41.5674  -20.1385 H       1  LIG1        0.0800
@<TRIPOS>BOND
     1     1     2   ar
     2     1     6   ar
     3     1    33    1
     4     2     3   ar
     5     2    34    1
     6     3     4   ar
     7     3    35    1
     8     4     5   ar
     9     4     8    1
    10     5     6   ar
    11     5    36    1
    12     6     7    1
    13     8     9    1
    14     8    37    1
    15     9    10    1
    16     9    38    1
    17     9    39    1
    18    10    11   ar
    19    10    14   ar
    20    11    12   ar
    21    11    40    1
    22    12    13   ar
    23    12    41    1
    24    13    14   ar
    25    13    15    1
    26    15    16   am
    27    15    17    2
    28    16    18    1
    29    16    42    1
    30    18    19    1
    31    18    20    1
    32    18    43    1
    33    19    27    2
    34    19    28   am
    35    20    21    1
    36    20    44    1
    37    20    45    1
    38    21    22    1
    39    21    26    1
    40    21    46    1
    41    22    23    1
    42    22    47    1
    43    22    48    1
    44    23    24    1
    45    23    49    1
    46    23    50    1
    47    24    25    1
    48    24    51    1
    49    24    52    1
    50    25    26    1
    51    25    53    1
    52    25    54    1
    53    26    55    1
    54    26    56    1
    55    28    29    1
    56    28    57    1
    57    29    30    1
    58    29    58    1
    59    29    59    1
    60    30    31    1
    61    30    60    1
    62    30    61    1
    63    31    32    1
    64    32    62    1
    65    32    63    1
    66    32    64    1
@<TRIPOS>SUBSTRUCTURE
     1 LIG1        1 TEMP              0 ****  ****    0 ROOT


##########                                Name:              G3.sdf
##########                        Cluster_Size:                   5
##########                          Grid_Score:          -69.905975
##########                     Grid_vdw_energy:          -43.920403
##########                      Grid_es_energy:          -25.985577
##########           Internal_energy_repulsive:           23.107405

@<TRIPOS>MOLECULE
G3.sdf
 66 68 1 0 0
SMALL
USER_CHARGES
****

@<TRIPOS>ATOM
      1 C          21.8612  -44.2212  -10.0443 C.ar    1  LIG1       -0.1500
      2 C          20.8081  -43.6303  -10.7358 C.ar    1  LIG1       -0.1500
      3 C          20.9006  -42.3060  -11.1535 C.ar    1  LIG1       -0.1500
      4 C          22.0518  -41.5667  -10.8720 C.ar    1  LIG1        0.1000
      5 C          23.1185  -42.1565  -10.1896 C.ar    1  LIG1       -0.1500
      6 C          23.0152  -43.4816   -9.7748 C.ar    1  LIG1        0.1770
      7 CL         24.3289  -44.2211   -8.9201 Cl      1  LIG1       -0.1770
      8 N          22.0930  -40.2377  -11.3122 N.pl3   1  LIG1       -0.8690
      9 C          20.9674  -39.6428  -12.0417 C.3     1  LIG1        0.3890
     10 C          20.0781  -39.0026  -10.9906 C.ar    1  LIG1       -0.1400
     11 C          19.1446  -39.6237  -10.2084 C.ar    1  LIG1       -0.1500
     12 C          18.5013  -38.7489   -9.3179 C.ar    1  LIG1       -0.1500
     13 C          18.9466  -37.4617   -9.4245 C.ar    1  LIG1       -0.1400
     14 S          20.1550  -37.3072  -10.6471 S.2     1  LIG1       -0.0800
     15 C          18.5113  -36.2521   -8.6479 C.3     1  LIG1        0.5230
     16 N          17.0639  -36.4107   -8.6549 N.4     1  LIG1       -0.9060
     17 C          16.6206  -36.3047  -10.0737 C.3     1  LIG1        0.4840
     18 C          16.3230  -34.8242  -10.4331 C.2     1  LIG1        0.5690
     19 C          15.4331  -37.2526  -10.3116 C.3     1  LIG1       -0.1600
     20 C          15.5424  -38.0832  -11.6068 C.3     1  LIG1       -0.0800
     21 C          14.8669  -39.4634  -11.4703 C.3     1  LIG1       -0.1600
     22 C          14.9317  -40.2430  -12.7918 C.3     1  LIG1       -0.1600
     23 C          14.3005  -39.4447  -13.9393 C.3     1  LIG1       -0.1600
     24 C          14.9726  -38.0735  -14.0808 C.3     1  LIG1       -0.1600
     25 C          14.9020  -37.2908  -12.7620 C.3     1  LIG1       -0.1600
     26 O          16.9377  -34.3053  -11.3562 O.2     1  LIG1       -0.5700
     27 N          15.5974  -34.1077   -9.5687 N.am    1  LIG1       -0.7300
     28 C          15.2802  -32.7104   -9.8430 C.3     1  LIG1        0.1400
     29 C          16.5269  -31.8537   -9.5291 C.3     1  LIG1        0.1200
     30 O          16.3150  -30.4472   -9.7599 O.3     1  LIG1       -0.5600
     31 C          15.9856  -30.1596  -11.1164 C.3     1  LIG1        0.0400
     32 H          21.7975  -45.2294   -9.7235 H       1  LIG1        0.1500
     33 H          19.9331  -44.1913  -10.9479 H       1  LIG1        0.1500
     34 H          20.1023  -41.8579  -11.6864 H       1  LIG1        0.1500
     35 H          24.0062  -41.6190   -9.9942 H       1  LIG1        0.1500
     36 H          23.0093  -39.9680  -11.6998 H       1  LIG1        0.4000
     37 H          20.4153  -40.4070  -12.5738 H       1  LIG1        0.0800
     38 H          21.3326  -38.8633  -12.6976 H       1  LIG1        0.0800
     39 H          18.9355  -40.6618  -10.2613 H       1  LIG1        0.1500
     40 H          17.7565  -39.0628   -8.6298 H       1  LIG1        0.1500
     41 H          18.8183  -35.3607   -9.1854 H       1  LIG1        0.0800
     42 H          18.9052  -36.3063   -7.6389 H       1  LIG1        0.0800
     43 H          16.6897  -35.6295   -8.1099 H       1  LIG1        0.4500
     44 H          17.4288  -36.6309  -10.7302 H       1  LIG1        0.0800
     45 H          14.5092  -36.6742  -10.3407 H       1  LIG1        0.0800
     46 H          15.3676  -37.9413   -9.4682 H       1  LIG1        0.0800
     47 H          16.5962  -38.2384  -11.8538 H       1  LIG1        0.0800
     48 H          13.8192  -39.3358  -11.1903 H       1  LIG1        0.0800
     49 H          15.3653  -40.0613  -10.7067 H       1  LIG1        0.0800
     50 H          14.4025  -41.1923  -12.6805 H       1  LIG1        0.0800
     51 H          15.9730  -40.4605  -13.0359 H       1  LIG1        0.0800
     52 H          13.2341  -39.3086  -13.7447 H       1  LIG1        0.0800
     53 H          14.4100  -40.0004  -14.8723 H       1  LIG1        0.0800
     54 H          14.4711  -37.5054  -14.8678 H       1  LIG1        0.0800
     55 H          16.0164  -38.2106  -14.3687 H       1  LIG1        0.0800
     56 H          13.8544  -37.0849  -12.5333 H       1  LIG1        0.0800
     57 H          15.4200  -36.3401  -12.8931 H       1  LIG1        0.0800
     58 H          15.5769  -34.3769   -8.5985 H       1  LIG1        0.3700
     59 H          14.4538  -32.3887   -9.2072 H       1  LIG1        0.0800
     60 H          14.9905  -32.5730  -10.8876 H       1  LIG1        0.0800
     61 H          17.3883  -32.2294  -10.0861 H       1  LIG1        0.0800
     62 H          16.7466  -31.9866   -8.4686 H       1  LIG1        0.0800
     63 H          15.8283  -29.0859  -11.2355 H       1  LIG1        0.0800
     64 H          16.8030  -30.4589  -11.7749 H       1  LIG1        0.0800
     65 H          15.0750  -30.6820  -11.4140 H       1  LIG1        0.0800
     66 H          16.8329  -37.2929   -8.2255 H       1  LIG1        0.4500
@<TRIPOS>BOND
     1     1     2   ar
     2     1     6   ar
     3     1    32    1
     4     2     3   ar
     5     2    33    1
     6     3     4   ar
     7     3    34    1
     8     4     5   ar
     9     4     8    1
    10     5     6   ar
    11     5    35    1
    12     6     7    1
    13     8     9    1
    14     8    36    1
    15     9    10    1
    16     9    37    1
    17     9    38    1
    18    10    11   ar
    19    10    14   ar
    20    11    12   ar
    21    11    39    1
    22    12    13   ar
    23    12    40    1
    24    13    14   ar
    25    13    15    1
    26    15    16    1
    27    15    41    1
    28    15    42    1
    29    16    17    1
    30    16    43    1
    31    16    66    1
    32    17    18    1
    33    17    19    1
    34    17    44    1
    35    18    26    2
    36    18    27   am
    37    19    20    1
    38    19    45    1
    39    19    46    1
    40    20    21    1
    41    20    25    1
    42    20    47    1
    43    21    22    1
    44    21    48    1
    45    21    49    1
    46    22    23    1
    47    22    50    1
    48    22    51    1
    49    23    24    1
    50    23    52    1
    51    23    53    1
    52    24    25    1
    53    24    54    1
    54    24    55    1
    55    25    56    1
    56    25    57    1
    57    27    28    1
    58    27    58    1
    59    28    29    1
    60    28    59    1
    61    28    60    1
    62    29    30    1
    63    29    61    1
    64    29    62    1
    65    30    31    1
    66    31    63    1
    67    31    64    1
    68    31    65    1
@<TRIPOS>SUBSTRUCTURE
     1 LIG1        1 TEMP              0 ****  ****    0 ROOT


##########                                Name:              G3.sdf
##########                        Cluster_Size:                   3
##########                          Grid_Score:          -68.994469
##########                     Grid_vdw_energy:          -43.964947
##########                      Grid_es_energy:          -25.029520
##########           Internal_energy_repulsive:           15.253651

@<TRIPOS>MOLECULE
G3.sdf
 66 68 1 0 0
SMALL
USER_CHARGES
****

@<TRIPOS>ATOM
      1 C          25.9018  -39.6657  -13.0113 C.ar    1  LIG1       -0.1500
      2 C          25.5977  -38.3331  -12.7505 C.ar    1  LIG1       -0.1500
      3 C          24.2899  -37.9579  -12.4580 C.ar    1  LIG1       -0.1500
      4 C          23.2790  -38.9215  -12.4326 C.ar    1  LIG1        0.1000
      5 C          23.5784  -40.2633  -12.6807 C.ar    1  LIG1       -0.1500
      6 C          24.8897  -40.6278  -12.9737 C.ar    1  LIG1        0.1770
      7 CL         25.2713  -42.2883  -13.2915 Cl      1  LIG1       -0.1770
      8 N          21.9797  -38.4910  -12.1356 N.pl3   1  LIG1       -0.8690
      9 C          20.8577  -39.4352  -12.0887 C.3     1  LIG1        0.3890
     10 C          19.9021  -38.8991  -11.0375 C.ar    1  LIG1       -0.1400
     11 C          18.9822  -39.6097  -10.3177 C.ar    1  LIG1       -0.1500
     12 C          18.2637  -38.8178   -9.4073 C.ar    1  LIG1       -0.1500
     13 C          18.6382  -37.5043   -9.4362 C.ar    1  LIG1       -0.1400
     14 S          19.8721  -37.2216  -10.6094 S.2     1  LIG1       -0.0800
     15 C          18.1116  -36.3614   -8.6163 C.3     1  LIG1        0.5230
     16 N          16.6740  -36.5570   -8.7391 N.4     1  LIG1       -0.9060
     17 C          16.3345  -36.4014  -10.1818 C.3     1  LIG1        0.4840
     18 C          16.1486  -34.9001  -10.5298 C.2     1  LIG1        0.5690
     19 C          15.1127  -37.2729  -10.5176 C.3     1  LIG1       -0.1600
     20 C          15.2662  -38.0975  -11.8121 C.3     1  LIG1       -0.0800
     21 C          14.4415  -39.4005  -11.7719 C.3     1  LIG1       -0.1600
     22 C          14.5590  -40.1695  -13.0960 C.3     1  LIG1       -0.1600
     23 C          14.1332  -39.2980  -14.2841 C.3     1  LIG1       -0.1600
     24 C          14.9541  -38.0035  -14.3298 C.3     1  LIG1       -0.1600
     25 C          14.8315  -37.2309  -13.0090 C.3     1  LIG1       -0.1600
     26 O          16.8814  -34.3931  -11.3696 O.2     1  LIG1       -0.5700
     27 N          15.3718  -34.1665   -9.7263 N.am    1  LIG1       -0.7300
     28 C          15.1535  -32.7492   -9.9941 C.3     1  LIG1        0.1400
     29 C          16.4151  -31.9685   -9.5630 C.3     1  LIG1        0.1200
     30 O          16.2908  -30.5466   -9.7600 O.3     1  LIG1       -0.5600
     31 C          16.0393  -30.2031  -11.1202 C.3     1  LIG1        0.0400
     32 H          26.8958  -39.9584  -13.2345 H       1  LIG1        0.1500
     33 H          26.3652  -37.6012  -12.7717 H       1  LIG1        0.1500
     34 H          24.0592  -36.9448  -12.2521 H       1  LIG1        0.1500
     35 H          22.8300  -41.0071  -12.6374 H       1  LIG1        0.1500
     36 H          21.7347  -37.5995  -12.5914 H       1  LIG1        0.4000
     37 H          21.2038  -40.4201  -11.8021 H       1  LIG1        0.0800
     38 H          20.3462  -39.4373  -13.0425 H       1  LIG1        0.0800
     39 H          18.8342  -40.6537  -10.4281 H       1  LIG1        0.1500
     40 H          17.5175  -39.2069   -8.7603 H       1  LIG1        0.1500
     41 H          18.4283  -35.4281   -9.0707 H       1  LIG1        0.0800
     42 H          18.4343  -36.4730   -7.5869 H       1  LIG1        0.0800
     43 H          16.2377  -35.8099   -8.1923 H       1  LIG1        0.4500
     44 H          17.1649  -36.7641  -10.7896 H       1  LIG1        0.0800
     45 H          14.2300  -36.6389  -10.6061 H       1  LIG1        0.0800
     46 H          14.9442  -37.9635   -9.6901 H       1  LIG1        0.0800
     47 H          16.3180  -38.3599  -11.9559 H       1  LIG1        0.0800
     48 H          13.3897  -39.1666  -11.5952 H       1  LIG1        0.0800
     49 H          14.7955  -40.0549  -10.9747 H       1  LIG1        0.0800
     50 H          13.9260  -41.0591  -13.0574 H       1  LIG1        0.0800
     51 H          15.5916  -40.4925  -13.2394 H       1  LIG1        0.0800
     52 H          13.0723  -39.0529  -14.1941 H       1  LIG1        0.0800
     53 H          14.2786  -39.8529  -15.2127 H       1  LIG1        0.0800
     54 H          14.5963  -37.3782  -15.1511 H       1  LIG1        0.0800
     55 H          16.0019  -38.2464  -14.5150 H       1  LIG1        0.0800
     56 H          13.7930  -36.9185  -12.8817 H       1  LIG1        0.0800
     57 H          15.4555  -36.3385  -13.0682 H       1  LIG1        0.0800
     58 H          15.2364  -34.4555   -8.7711 H       1  LIG1        0.3700
     59 H          14.2970  -32.3935   -9.4190 H       1  LIG1        0.0800
     60 H          14.9567  -32.5773  -11.0551 H       1  LIG1        0.0800
     61 H          17.2949  -32.3714  -10.0699 H       1  LIG1        0.0800
     62 H          16.5501  -32.1451   -8.4948 H       1  LIG1        0.0800
     63 H          15.9462  -29.1194  -11.2133 H       1  LIG1        0.0800
     64 H          16.8680  -30.5291  -11.7512 H       1  LIG1        0.0800
     65 H          15.1159  -30.6655  -11.4729 H       1  LIG1        0.0800
     66 H          16.4374  -37.4625   -8.3650 H       1  LIG1        0.4500
@<TRIPOS>BOND
     1     1     2   ar
     2     1     6   ar
     3     1    32    1
     4     2     3   ar
     5     2    33    1
     6     3     4   ar
     7     3    34    1
     8     4     5   ar
     9     4     8    1
    10     5     6   ar
    11     5    35    1
    12     6     7    1
    13     8     9    1
    14     8    36    1
    15     9    10    1
    16     9    37    1
    17     9    38    1
    18    10    11   ar
    19    10    14   ar
    20    11    12   ar
    21    11    39    1
    22    12    13   ar
    23    12    40    1
    24    13    14   ar
    25    13    15    1
    26    15    16    1
    27    15    41    1
    28    15    42    1
    29    16    17    1
    30    16    43    1
    31    16    66    1
    32    17    18    1
    33    17    19    1
    34    17    44    1
    35    18    26    2
    36    18    27   am
    37    19    20    1
    38    19    45    1
    39    19    46    1
    40    20    21    1
    41    20    25    1
    42    20    47    1
    43    21    22    1
    44    21    48    1
    45    21    49    1
    46    22    23    1
    47    22    50    1
    48    22    51    1
    49    23    24    1
    50    23    52    1
    51    23    53    1
    52    24    25    1
    53    24    54    1
    54    24    55    1
    55    25    56    1
    56    25    57    1
    57    27    28    1
    58    27    58    1
    59    28    29    1
    60    28    59    1
    61    28    60    1
    62    29    30    1
    63    29    61    1
    64    29    62    1
    65    30    31    1
    66    31    63    1
    67    31    64    1
    68    31    65    1
@<TRIPOS>SUBSTRUCTURE
     1 LIG1        1 TEMP              0 ****  ****    0 ROOT


##########                                Name:              G3.sdf
##########                        Cluster_Size:                   2
##########                          Grid_Score:          -67.396301
##########                     Grid_vdw_energy:          -48.471016
##########                      Grid_es_energy:          -18.925282
##########           Internal_energy_repulsive:           17.042007

@<TRIPOS>MOLECULE
G3.sdf
 66 68 1 0 0
SMALL
USER_CHARGES
****

@<TRIPOS>ATOM
      1 C          25.0589  -41.6120  -11.2192 C.ar    1  LIG1       -0.1500
      2 C          24.0473  -42.2345  -10.4944 C.ar    1  LIG1       -0.1500
      3 C          22.7740  -41.6750  -10.4472 C.ar    1  LIG1       -0.1500
      4 C          22.5131  -40.4816  -11.1248 C.ar    1  LIG1        0.1000
      5 C          23.5199  -39.8573  -11.8652 C.ar    1  LIG1       -0.1500
      6 C          24.7906  -40.4247  -11.9047 C.ar    1  LIG1        0.1770
      7 CL         26.0496  -39.6544  -12.8131 Cl      1  LIG1       -0.1770
      8 N          21.2160  -39.9594  -11.0430 N.pl3   1  LIG1       -0.8690
      9 C          20.1686  -40.6414  -10.2746 C.3     1  LIG1        0.3890
     10 C          19.2152  -39.5551   -9.8093 C.ar    1  LIG1       -0.1400
     11 C          17.8576  -39.6482   -9.6770 C.ar    1  LIG1       -0.1500
     12 C          17.2676  -38.4651   -9.2033 C.ar    1  LIG1       -0.1500
     13 C          18.1782  -37.4723   -8.9761 C.ar    1  LIG1       -0.1400
     14 S          19.7809  -37.9792   -9.3677 S.2     1  LIG1       -0.0800
     15 C          17.9389  -36.0794   -8.4680 C.3     1  LIG1        0.5230
     16 N          16.5968  -35.8169   -8.9680 N.4     1  LIG1       -0.9060
     17 C          16.7422  -34.9580  -10.1771 C.3     1  LIG1        0.4840
     18 C          15.9953  -33.6128   -9.9720 C.2     1  LIG1        0.5690
     19 C          16.2835  -35.7401  -11.4193 C.3     1  LIG1       -0.1600
     20 C          17.2647  -35.6637  -12.6071 C.3     1  LIG1       -0.0800
     21 C          17.9791  -37.0078  -12.8576 C.3     1  LIG1       -0.1600
     22 C          18.8993  -36.9239  -14.0841 C.3     1  LIG1       -0.1600
     23 C          18.1231  -36.4848  -15.3320 C.3     1  LIG1       -0.1600
     24 C          17.4151  -35.1465  -15.0880 C.3     1  LIG1       -0.1600
     25 C          16.4897  -35.2318  -13.8662 C.3     1  LIG1       -0.1600
     26 O          14.8683  -33.6297   -9.4936 O.2     1  LIG1       -0.5700
     27 N          16.5065  -32.5224  -10.5523 N.am    1  LIG1       -0.7300
     28 C          15.8561  -31.2253  -10.4012 C.3     1  LIG1        0.1400
     29 C          16.1722  -30.3699  -11.6482 C.3     1  LIG1        0.1200
     30 O          17.5750  -30.0696  -11.7830 O.3     1  LIG1       -0.5600
     31 C          18.0945  -29.3685  -10.6561 C.3     1  LIG1        0.0400
     32 H          26.0309  -42.0328  -11.2596 H       1  LIG1        0.1500
     33 H          24.2460  -43.1397   -9.9784 H       1  LIG1        0.1500
     34 H          22.0016  -42.1523   -9.9018 H       1  LIG1        0.1500
     35 H          23.3303  -38.9700  -12.4055 H       1  LIG1        0.1500
     36 H          20.8744  -39.5823  -11.9395 H       1  LIG1        0.4000
     37 H          20.5961  -41.1464   -9.4177 H       1  LIG1        0.0800
     38 H          19.6243  -41.3153  -10.9234 H       1  LIG1        0.0800
     39 H          17.3080  -40.5272   -9.8990 H       1  LIG1        0.1500
     40 H          16.2250  -38.3631   -9.0317 H       1  LIG1        0.1500
     41 H          18.6694  -35.4125   -8.9146 H       1  LIG1        0.0800
     42 H          17.9585  -36.0792   -7.3836 H       1  LIG1        0.0800
     43 H          16.1129  -35.3027   -8.2271 H       1  LIG1        0.4500
     44 H          17.7956  -34.7135  -10.3220 H       1  LIG1        0.0800
     45 H          15.3104  -35.3683  -11.7415 H       1  LIG1        0.0800
     46 H          16.1635  -36.7882  -11.1417 H       1  LIG1        0.0800
     47 H          18.0236  -34.9026  -12.4060 H       1  LIG1        0.0800
     48 H          17.2396  -37.7930  -13.0280 H       1  LIG1        0.0800
     49 H          18.5930  -37.2826  -11.9994 H       1  LIG1        0.0800
     50 H          19.3514  -37.9015  -14.2674 H       1  LIG1        0.0800
     51 H          19.7011  -36.2093  -13.8900 H       1  LIG1        0.0800
     52 H          17.3828  -37.2466  -15.5871 H       1  LIG1        0.0800
     53 H          18.8126  -36.3826  -16.1720 H       1  LIG1        0.0800
     54 H          16.8280  -34.8827  -15.9708 H       1  LIG1        0.0800
     55 H          18.1616  -34.3668  -14.9271 H       1  LIG1        0.0800
     56 H          15.6967  -35.9520  -14.0777 H       1  LIG1        0.0800
     57 H          16.0340  -34.2541  -13.7054 H       1  LIG1        0.0800
     58 H          17.0930  -32.6238  -11.3647 H       1  LIG1        0.3700
     59 H          16.2411  -30.7216   -9.5130 H       1  LIG1        0.0800
     60 H          14.7745  -31.3400  -10.2958 H       1  LIG1        0.0800
     61 H          15.5634  -29.4628  -11.6431 H       1  LIG1        0.0800
     62 H          15.8725  -30.9537  -12.5199 H       1  LIG1        0.0800
     63 H          19.1583  -29.1731  -10.8046 H       1  LIG1        0.0800
     64 H          17.5853  -28.4101  -10.5402 H       1  LIG1        0.0800
     65 H          17.9702  -29.9539   -9.7436 H       1  LIG1        0.0800
     66 H          16.1419  -36.6974   -9.1517 H       1  LIG1        0.4500
@<TRIPOS>BOND
     1     1     2   ar
     2     1     6   ar
     3     1    32    1
     4     2     3   ar
     5     2    33    1
     6     3     4   ar
     7     3    34    1
     8     4     5   ar
     9     4     8    1
    10     5     6   ar
    11     5    35    1
    12     6     7    1
    13     8     9    1
    14     8    36    1
    15     9    10    1
    16     9    37    1
    17     9    38    1
    18    10    11   ar
    19    10    14   ar
    20    11    12   ar
    21    11    39    1
    22    12    13   ar
    23    12    40    1
    24    13    14   ar
    25    13    15    1
    26    15    16    1
    27    15    41    1
    28    15    42    1
    29    16    17    1
    30    16    43    1
    31    16    66    1
    32    17    18    1
    33    17    19    1
    34    17    44    1
    35    18    26    2
    36    18    27   am
    37    19    20    1
    38    19    45    1
    39    19    46    1
    40    20    21    1
    41    20    25    1
    42    20    47    1
    43    21    22    1
    44    21    48    1
    45    21    49    1
    46    22    23    1
    47    22    50    1
    48    22    51    1
    49    23    24    1
    50    23    52    1
    51    23    53    1
    52    24    25    1
    53    24    54    1
    54    24    55    1
    55    25    56    1
    56    25    57    1
    57    27    28    1
    58    27    58    1
    59    28    29    1
    60    28    59    1
    61    28    60    1
    62    29    30    1
    63    29    61    1
    64    29    62    1
    65    30    31    1
    66    31    63    1
    67    31    64    1
    68    31    65    1
@<TRIPOS>SUBSTRUCTURE
     1 LIG1        1 TEMP              0 ****  ****    0 ROOT


##########                                Name:      Z28053011.****
##########                        Cluster_Size:                   8
##########                          Grid_Score:          -46.263443
##########                     Grid_vdw_energy:          -41.958035
##########                      Grid_es_energy:           -4.305408
##########           Internal_energy_repulsive:            9.724406

@<TRIPOS>MOLECULE
Z28053011.****
 44 47 1 0 0
SMALL
USER_CHARGES
****

@<TRIPOS>ATOM
      1 C          14.6983  -41.6799  -11.1408 C.ar    1  LIG1        0.1770
      2 C          14.7337  -40.6623  -12.0903 C.ar    1  LIG1       -0.1500
      3 C          15.7333  -39.6973  -12.0368 C.ar    1  LIG1       -0.1500
      4 C          16.7131  -39.7276  -11.0364 C.ar    1  LIG1       -0.1440
      5 C          16.6730  -40.7721  -10.0990 C.ar    1  LIG1       -0.1500
      6 C          15.6713  -41.7359  -10.1457 C.ar    1  LIG1       -0.1500
      7 CL         13.4450  -42.8743  -11.1988 Cl      1  LIG1       -0.1770
      8 C          17.7783  -38.6034  -11.0210 C.3     1  LIG1        0.2050
      9 C          17.1609  -37.2836  -11.5630 C.2     1  LIG1        0.5690
     10 C          18.9704  -39.0534  -11.8937 C.3     1  LIG1       -0.1600
     11 C          19.7197  -40.0161  -10.9708 C.3     1  LIG1       -0.1600
     12 C          19.5831  -39.4065   -9.5717 C.3     1  LIG1       -0.1600
     13 C          18.4527  -38.3647   -9.6440 C.3     1  LIG1       -0.1600
     14 N          16.3340  -36.4737  -10.8323 N.am    1  LIG1       -0.5470
     15 O          17.3725  -36.8723  -12.6853 O.2     1  LIG1       -0.5700
     16 C          15.7438  -35.2735  -11.2572 C.ar    1  LIG1        0.1170
     17 C          16.2270  -34.0622  -10.7745 C.ar    1  LIG1       -0.1500
     18 C          15.6806  -32.8850  -11.2836 C.ar    1  LIG1       -0.0230
     19 C          14.6350  -32.9059  -12.2129 C.ar    1  LIG1       -0.1500
     20 C          14.1368  -34.1340  -12.6467 C.ar    1  LIG1       -0.1500
     21 C          14.6890  -35.3226  -12.1715 C.ar    1  LIG1       -0.1500
     22 N          16.2273  -31.6198  -10.8627 N.ar    1  LIG1        0.5930
     23 N          16.4013  -30.5850  -11.6692 N.ar    1  LIG1       -0.4180
     24 N          16.9261  -29.6534  -10.9274 N.ar    1  LIG1        0.0000
     25 N          17.0842  -30.0966   -9.6498 N.ar    1  LIG1       -0.3380
     26 C          16.6480  -31.2997   -9.6473 C.ar    1  LIG1        0.0360
     27 H          13.9964  -40.6315  -12.8510 H       1  LIG1        0.1500
     28 H          15.7469  -38.9294  -12.7699 H       1  LIG1        0.1500
     29 H          17.4023  -40.8445   -9.3355 H       1  LIG1        0.1500
     30 H          15.6399  -42.5153   -9.4285 H       1  LIG1        0.1500
     31 H          19.6131  -38.2001  -12.1204 H       1  LIG1        0.0800
     32 H          18.6611  -39.5382  -12.8207 H       1  LIG1        0.0800
     33 H          20.7665  -40.1131  -11.2653 H       1  LIG1        0.0800
     34 H          19.2399  -40.9974  -10.9948 H       1  LIG1        0.0800
     35 H          20.5150  -38.9175   -9.2828 H       1  LIG1        0.0800
     36 H          19.3496  -40.1877   -8.8465 H       1  LIG1        0.0800
     37 H          17.7688  -38.4397   -8.7993 H       1  LIG1        0.0800
     38 H          18.9038  -37.3703   -9.6410 H       1  LIG1        0.0800
     39 H          16.1288  -36.8265   -9.8873 H       1  LIG1        0.3700
     40 H          17.0067  -34.0463  -10.0566 H       1  LIG1        0.1500
     41 H          14.2271  -32.0000  -12.5884 H       1  LIG1        0.1500
     42 H          13.3397  -34.1639  -13.3459 H       1  LIG1        0.1500
     43 H          14.3233  -36.2573  -12.5101 H       1  LIG1        0.1500
     44 H          16.5966  -31.9899   -8.8464 H       1  LIG1        0.1500
@<TRIPOS>BOND
     1     1     2   ar
     2     1     6   ar
     3     1     7    1
     4     2     3   ar
     5     2    27    1
     6     3     4   ar
     7     3    28    1
     8     4     5   ar
     9     4     8    1
    10     5     6   ar
    11     5    29    1
    12     6    30    1
    13     8     9    1
    14     8    10    1
    15     8    13    1
    16     9    14   am
    17     9    15    2
    18    10    11    1
    19    10    31    1
    20    10    32    1
    21    11    12    1
    22    11    33    1
    23    11    34    1
    24    12    13    1
    25    12    35    1
    26    12    36    1
    27    13    37    1
    28    13    38    1
    29    14    16    1
    30    14    39    1
    31    16    17   ar
    32    16    21   ar
    33    17    18   ar
    34    17    40    1
    35    18    19   ar
    36    18    22    1
    37    19    20   ar
    38    19    41    1
    39    20    21   ar
    40    20    42    1
    41    21    43    1
    42    22    23   ar
    43    22    26   ar
    44    23    24   ar
    45    24    25   ar
    46    25    26   ar
    47    26    44    1
@<TRIPOS>SUBSTRUCTURE
     1 LIG1        1 TEMP              0 ****  ****    0 ROOT


##########                                Name:      Z28053011.****
##########                        Cluster_Size:                   1
##########                          Grid_Score:          -41.285854
##########                     Grid_vdw_energy:          -38.461617
##########                      Grid_es_energy:           -2.824237
##########           Internal_energy_repulsive:           17.443350

@<TRIPOS>MOLECULE
Z28053011.****
 44 47 1 0 0
SMALL
USER_CHARGES
****

@<TRIPOS>ATOM
      1 C          18.6801  -36.8957   -9.2582 C.ar    1  LIG1        0.1770
      2 C          19.0826  -36.3472  -10.4730 C.ar    1  LIG1       -0.1500
      3 C          18.2298  -35.4961  -11.1670 C.ar    1  LIG1       -0.1500
      4 C          16.9614  -35.1783  -10.6650 C.ar    1  LIG1       -0.1440
      5 C          16.5802  -35.7252   -9.4294 C.ar    1  LIG1       -0.1500
      6 C          17.4280  -36.5816   -8.7349 C.ar    1  LIG1       -0.1500
      7 CL         19.7367  -37.9671   -8.4000 Cl      1  LIG1       -0.1770
      8 C          16.0535  -34.2473  -11.5063 C.3     1  LIG1        0.2050
      9 C          16.0270  -34.7302  -12.9838 C.2     1  LIG1        0.5690
     10 C          16.6085  -32.8095  -11.4062 C.3     1  LIG1       -0.1600
     11 C          16.1078  -32.3493  -10.0359 C.3     1  LIG1       -0.1600
     12 C          14.7166  -32.9755   -9.8946 C.3     1  LIG1       -0.1600
     13 C          14.6104  -34.0797  -10.9614 C.3     1  LIG1       -0.1600
     14 N          16.6900  -35.8399  -13.4340 N.am    1  LIG1       -0.5470
     15 O          15.4076  -34.1514  -13.8526 O.2     1  LIG1       -0.5700
     16 C          16.7094  -36.3311  -14.7484 C.ar    1  LIG1        0.1170
     17 C          16.5552  -37.6945  -14.9742 C.ar    1  LIG1       -0.1500
     18 C          16.4881  -38.1404  -16.2934 C.ar    1  LIG1       -0.0230
     19 C          16.6277  -37.2594  -17.3713 C.ar    1  LIG1       -0.1500
     20 C          16.8275  -35.9028  -17.1178 C.ar    1  LIG1       -0.1500
     21 C          16.8687  -35.4328  -15.8060 C.ar    1  LIG1       -0.1500
     22 N          16.2403  -39.5368  -16.5490 N.ar    1  LIG1        0.5930
     23 N          15.4610  -39.9831  -17.5211 N.ar    1  LIG1       -0.4180
     24 N          15.4804  -41.2797  -17.4115 N.ar    1  LIG1        0.0000
     25 N          16.2728  -41.6564  -16.3704 N.ar    1  LIG1       -0.3380
     26 C          16.7191  -40.5676  -15.8673 C.ar    1  LIG1        0.0360
     27 H          20.0406  -36.5821  -10.8605 H       1  LIG1        0.1500
     28 H          18.5533  -35.0848  -12.0908 H       1  LIG1        0.1500
     29 H          15.6379  -35.4997   -9.0035 H       1  LIG1        0.1500
     30 H          17.1299  -37.0000   -7.8082 H       1  LIG1        0.1500
     31 H          16.1640  -32.1807  -12.1805 H       1  LIG1        0.0800
     32 H          17.6963  -32.7666  -11.4761 H       1  LIG1        0.0800
     33 H          16.0653  -31.2601   -9.9751 H       1  LIG1        0.0800
     34 H          16.7675  -32.7345   -9.2547 H       1  LIG1        0.0800
     35 H          13.9464  -32.2219  -10.0684 H       1  LIG1        0.0800
     36 H          14.5938  -33.3872   -8.8916 H       1  LIG1        0.0800
     37 H          14.1803  -34.9977  -10.5625 H       1  LIG1        0.0800
     38 H          13.9702  -33.7155  -11.7675 H       1  LIG1        0.0800
     39 H          17.2382  -36.3239  -12.7096 H       1  LIG1        0.3700
     40 H          16.4678  -38.3645  -14.1575 H       1  LIG1        0.1500
     41 H          16.5779  -37.6156  -18.3706 H       1  LIG1        0.1500
     42 H          16.9417  -35.2253  -17.9260 H       1  LIG1        0.1500
     43 H          17.0052  -34.4008  -15.6098 H       1  LIG1        0.1500
     44 H          17.3689  -40.4297  -15.0432 H       1  LIG1        0.1500
@<TRIPOS>BOND
     1     1     2   ar
     2     1     6   ar
     3     1     7    1
     4     2     3   ar
     5     2    27    1
     6     3     4   ar
     7     3    28    1
     8     4     5   ar
     9     4     8    1
    10     5     6   ar
    11     5    29    1
    12     6    30    1
    13     8     9    1
    14     8    10    1
    15     8    13    1
    16     9    14   am
    17     9    15    2
    18    10    11    1
    19    10    31    1
    20    10    32    1
    21    11    12    1
    22    11    33    1
    23    11    34    1
    24    12    13    1
    25    12    35    1
    26    12    36    1
    27    13    37    1
    28    13    38    1
    29    14    16    1
    30    14    39    1
    31    16    17   ar
    32    16    21   ar
    33    17    18   ar
    34    17    40    1
    35    18    19   ar
    36    18    22    1
    37    19    20   ar
    38    19    41    1
    39    20    21   ar
    40    20    42    1
    41    21    43    1
    42    22    23   ar
    43    22    26   ar
    44    23    24   ar
    45    24    25   ar
    46    25    26   ar
    47    26    44    1
@<TRIPOS>SUBSTRUCTURE
     1 LIG1        1 TEMP              0 ****  ****    0 ROOT


##########                                Name:      Z28053011.****
##########                        Cluster_Size:                   1
##########                          Grid_Score:          -38.533443
##########                     Grid_vdw_energy:          -35.081474
##########                      Grid_es_energy:           -3.451969
##########           Internal_energy_repulsive:           14.888766

@<TRIPOS>MOLECULE
Z28053011.****
 44 47 1 0 0
SMALL
USER_CHARGES
****

@<TRIPOS>ATOM
      1 C          22.3217  -39.0664  -12.2814 C.ar    1  LIG1        0.1770
      2 C          21.4868  -40.1790  -12.3402 C.ar    1  LIG1       -0.1500
      3 C          20.1247  -40.0383  -12.0997 C.ar    1  LIG1       -0.1500
      4 C          19.5708  -38.7886  -11.7943 C.ar    1  LIG1       -0.1440
      5 C          20.4248  -37.6747  -11.7584 C.ar    1  LIG1       -0.1500
      6 C          21.7888  -37.8123  -11.9928 C.ar    1  LIG1       -0.1500
      7 CL         24.0210  -39.2436  -12.5673 Cl      1  LIG1       -0.1770
      8 C          18.0505  -38.7118  -11.5088 C.3     1  LIG1        0.2050
      9 C          17.4932  -37.3395  -11.9810 C.2     1  LIG1        0.5690
     10 C          17.8321  -38.9030   -9.9918 C.3     1  LIG1       -0.1600
     11 C          17.9655  -40.4172   -9.8200 C.3     1  LIG1       -0.1600
     12 C          17.3296  -41.0138  -11.0798 C.3     1  LIG1       -0.1600
     13 C          17.2162  -39.8746  -12.1085 C.3     1  LIG1       -0.1600
     14 N          16.5633  -36.6153  -11.2848 N.am    1  LIG1       -0.5470
     15 O          17.8489  -36.8060  -13.0116 O.2     1  LIG1       -0.5700
     16 C          16.0189  -35.3748  -11.6511 C.ar    1  LIG1        0.1170
     17 C          16.4526  -34.2189  -11.0114 C.ar    1  LIG1       -0.1500
     18 C          15.9601  -32.9938  -11.4589 C.ar    1  LIG1       -0.0230
     19 C          15.0117  -32.9174  -12.4847 C.ar    1  LIG1       -0.1500
     20 C          14.5583  -34.0945  -13.0790 C.ar    1  LIG1       -0.1500
     21 C          15.0599  -35.3277  -12.6655 C.ar    1  LIG1       -0.1500
     22 N          16.4632  -31.7790  -10.8691 N.ar    1  LIG1        0.5930
     23 N          16.7169  -30.6751  -11.5536 N.ar    1  LIG1       -0.4180
     24 N          17.1662  -29.8222  -10.6794 N.ar    1  LIG1        0.0000
     25 N          17.1967  -30.3845   -9.4398 N.ar    1  LIG1       -0.3380
     26 C          16.7615  -31.5781   -9.5935 C.ar    1  LIG1        0.0360
     27 H          21.8971  -41.1286  -12.5706 H       1  LIG1        0.1500
     28 H          19.5018  -40.8967  -12.1507 H       1  LIG1        0.1500
     29 H          20.0478  -36.7083  -11.5482 H       1  LIG1        0.1500
     30 H          22.4298  -36.9695  -11.9530 H       1  LIG1        0.1500
     31 H          16.8202  -38.5982   -9.7168 H       1  LIG1        0.0800
     32 H          18.5581  -38.3602   -9.3849 H       1  LIG1        0.0800
     33 H          17.4596  -40.7592   -8.9151 H       1  LIG1        0.0800
     34 H          19.0224  -40.6907   -9.7745 H       1  LIG1        0.0800
     35 H          16.3355  -41.4017  -10.8508 H       1  LIG1        0.0800
     36 H          17.9508  -41.8256  -11.4617 H       1  LIG1        0.0800
     37 H          17.5402  -40.1830  -13.1019 H       1  LIG1        0.0800
     38 H          16.1703  -39.5658  -12.1623 H       1  LIG1        0.0800
     39 H          16.2371  -37.0709  -10.4214 H       1  LIG1        0.3700
     40 H          17.1574  -34.2779  -10.2219 H       1  LIG1        0.1500
     41 H          14.6436  -31.9764  -12.8117 H       1  LIG1        0.1500
     42 H          13.8343  -34.0510  -13.8531 H       1  LIG1        0.1500
     43 H          14.7290  -36.2230  -13.1249 H       1  LIG1        0.1500
     44 H          16.6307  -32.3397   -8.8700 H       1  LIG1        0.1500
@<TRIPOS>BOND
     1     1     2   ar
     2     1     6   ar
     3     1     7    1
     4     2     3   ar
     5     2    27    1
     6     3     4   ar
     7     3    28    1
     8     4     5   ar
     9     4     8    1
    10     5     6   ar
    11     5    29    1
    12     6    30    1
    13     8     9    1
    14     8    10    1
    15     8    13    1
    16     9    14   am
    17     9    15    2
    18    10    11    1
    19    10    31    1
    20    10    32    1
    21    11    12    1
    22    11    33    1
    23    11    34    1
    24    12    13    1
    25    12    35    1
    26    12    36    1
    27    13    37    1
    28    13    38    1
    29    14    16    1
    30    14    39    1
    31    16    17   ar
    32    16    21   ar
    33    17    18   ar
    34    17    40    1
    35    18    19   ar
    36    18    22    1
    37    19    20   ar
    38    19    41    1
    39    20    21   ar
    40    20    42    1
    41    21    43    1
    42    22    23   ar
    43    22    26   ar
    44    23    24   ar
    45    24    25   ar
    46    25    26   ar
    47    26    44    1
@<TRIPOS>SUBSTRUCTURE
     1 LIG1        1 TEMP              0 ****  ****    0 ROOT


##########                                Name:    Z1344352878.****
##########                        Cluster_Size:                   8
##########                          Grid_Score:          -56.328327
##########                     Grid_vdw_energy:          -33.446594
##########                      Grid_es_energy:          -22.881733
##########           Internal_energy_repulsive:           19.454136

@<TRIPOS>MOLECULE
Z1344352878.****
 43 44 1 0 0
SMALL
USER_CHARGES
****

@<TRIPOS>ATOM
      1 C          21.6180  -41.6378  -10.3079 C.ar    1  LIG1        0.1600
      2 C          20.5909  -42.3552   -9.7043 C.ar    1  LIG1       -0.1500
      3 C          19.3339  -41.7830   -9.5907 C.ar    1  LIG1       -0.1500
      4 C          19.1571  -40.4984  -10.0831 C.ar    1  LIG1       -0.1500
      5 C          20.2247  -39.8297  -10.6812 C.ar    1  LIG1        0.1660
      6 N          21.4228  -40.4090  -10.7970 N.ar    1  LIG1       -0.6200
      7 C          20.0541  -38.4147  -11.1991 C.3     1  LIG1       -0.0160
      8 C          19.2580  -37.5823  -10.1717 C.3     1  LIG1       -0.0990
      9 C          17.7448  -37.6278  -10.3837 C.2     1  LIG1        0.5690
     10 N          16.8841  -37.2129   -9.4304 N.am    1  LIG1       -0.6600
     11 O          17.3186  -38.0595  -11.4470 O.2     1  LIG1       -0.5700
     12 C          15.4225  -37.2537   -9.6276 C.3     1  LIG1        0.1400
     13 C          15.0822  -35.9191  -10.3414 C.3     1  LIG1        0.3430
     14 N          15.4979  -34.7541   -9.4657 N.4     1  LIG1       -0.9590
     15 C          16.9927  -34.8134   -9.2459 C.3     1  LIG1        0.3430
     16 C          17.3163  -36.1350   -8.5090 C.3     1  LIG1        0.1400
     17 C          15.1352  -33.4001  -10.1420 C.3     1  LIG1        0.4230
     18 C          15.1748  -33.4273  -11.7351 C.3     1  LIG1        1.0200
     19 C          16.0507  -32.2659   -9.6001 C.3     1  LIG1       -0.2400
     20 F          16.2564  -34.0893  -12.1614 F       1  LIG1       -0.3400
     21 F          14.0598  -34.0024  -12.2276 F       1  LIG1       -0.3400
     22 F          15.2289  -32.1569  -12.1699 F       1  LIG1       -0.3400
     23 H          22.5860  -42.0640  -10.3872 H       1  LIG1        0.1500
     24 H          20.7723  -43.3286   -9.3260 H       1  LIG1        0.1500
     25 H          18.5338  -42.3064   -9.1294 H       1  LIG1        0.1500
     26 H          18.2139  -40.0240   -9.9941 H       1  LIG1        0.1500
     27 H          19.5540  -38.4137  -12.1686 H       1  LIG1        0.0800
     28 H          21.0461  -37.9774  -11.3254 H       1  LIG1        0.0800
     29 H          19.5451  -36.5385  -10.3011 H       1  LIG1        0.0800
     30 H          19.5187  -37.8462   -9.1481 H       1  LIG1        0.0800
     31 H          14.9169  -37.2901   -8.6704 H       1  LIG1        0.0800
     32 H          15.1216  -38.0739  -10.2629 H       1  LIG1        0.0800
     33 H          14.0143  -35.9048  -10.5252 H       1  LIG1        0.0800
     34 H          15.6529  -35.8975  -11.2625 H       1  LIG1        0.0800
     35 H          17.3163  -33.9891   -8.6197 H       1  LIG1        0.0800
     36 H          17.5190  -34.8393  -10.1942 H       1  LIG1        0.0800
     37 H          18.3852  -36.1898   -8.3337 H       1  LIG1        0.0800
     38 H          16.7601  -36.1861   -7.5827 H       1  LIG1        0.0800
     39 H          14.1124  -33.1473   -9.8835 H       1  LIG1        0.0800
     40 H          15.6900  -31.3197  -10.0088 H       1  LIG1        0.0800
     41 H          15.9912  -32.2099   -8.5142 H       1  LIG1        0.0800
     42 H          17.0849  -32.4089   -9.9168 H       1  LIG1        0.0800
     43 H          15.0220  -34.8233   -8.5701 H       1  LIG1        0.4500
@<TRIPOS>BOND
     1     1     2   ar
     2     1     6   ar
     3     1    23    1
     4     2     3   ar
     5     2    24    1
     6     3     4   ar
     7     3    25    1
     8     4     5   ar
     9     4    26    1
    10     5     6   ar
    11     5     7    1
    12     7     8    1
    13     7    27    1
    14     7    28    1
    15     8     9    1
    16     8    29    1
    17     8    30    1
    18     9    10   am
    19     9    11    2
    20    10    12    1
    21    10    16    1
    22    12    13    1
    23    12    31    1
    24    12    32    1
    25    13    14    1
    26    13    33    1
    27    13    34    1
    28    14    15    1
    29    14    17    1
    30    14    43    1
    31    15    16    1
    32    15    35    1
    33    15    36    1
    34    16    37    1
    35    16    38    1
    36    17    18    1
    37    17    19    1
    38    17    39    1
    39    18    20    1
    40    18    21    1
    41    18    22    1
    42    19    40    1
    43    19    41    1
    44    19    42    1
@<TRIPOS>SUBSTRUCTURE
     1 LIG1        1 TEMP              0 ****  ****    0 ROOT


##########                                Name:    Z1344352878.****
##########                        Cluster_Size:                   2
##########                          Grid_Score:          -52.666325
##########                     Grid_vdw_energy:          -33.356750
##########                      Grid_es_energy:          -19.309574
##########           Internal_energy_repulsive:           23.766043

@<TRIPOS>MOLECULE
Z1344352878.****
 43 44 1 0 0
SMALL
USER_CHARGES
****

@<TRIPOS>ATOM
      1 C          17.7598  -37.5608  -15.2369 C.ar    1  LIG1        0.1600
      2 C          17.5897  -36.1806  -15.2506 C.ar    1  LIG1       -0.1500
      3 C          18.0338  -35.4276  -14.1753 C.ar    1  LIG1       -0.1500
      4 C          18.6282  -36.0955  -13.1148 C.ar    1  LIG1       -0.1500
      5 C          18.7739  -37.4816  -13.1597 C.ar    1  LIG1        0.1660
      6 N          18.3555  -38.1847  -14.2157 N.ar    1  LIG1       -0.6200
      7 C          19.3964  -38.2285  -11.9960 C.3     1  LIG1       -0.0160
      8 C          18.9141  -37.6076  -10.6678 C.3     1  LIG1       -0.0990
      9 C          17.3926  -37.5606  -10.5277 C.2     1  LIG1        0.5690
     10 N          16.7982  -37.0147   -9.4459 N.am    1  LIG1       -0.6600
     11 O          16.7104  -38.0395  -11.4243 O.2     1  LIG1       -0.5700
     12 C          15.3306  -36.9657   -9.3036 C.3     1  LIG1        0.1400
     13 C          14.9049  -35.6677  -10.0389 C.3     1  LIG1        0.3430
     14 N          15.5719  -34.4728   -9.3876 N.4     1  LIG1       -0.9590
     15 C          17.0719  -34.6221   -9.5065 C.3     1  LIG1        0.3430
     16 C          17.4873  -35.9042   -8.7463 C.3     1  LIG1        0.1400
     17 C          15.1342  -33.1511  -10.0831 C.3     1  LIG1        0.4230
     18 C          15.1379  -33.2116  -11.6759 C.3     1  LIG1        1.0200
     19 C          16.0111  -31.9664   -9.5875 C.3     1  LIG1       -0.2400
     20 F          15.2241  -31.9783  -12.1871 F       1  LIG1       -0.3400
     21 F          16.1627  -33.9660  -12.1195 F       1  LIG1       -0.3400
     22 F          13.9859  -33.7792  -12.0715 F       1  LIG1       -0.3400
     23 H          17.4111  -38.1454  -16.0504 H       1  LIG1        0.1500
     24 H          17.1151  -35.7108  -16.0737 H       1  LIG1        0.1500
     25 H          17.9115  -34.3734  -14.1576 H       1  LIG1        0.1500
     26 H          18.9606  -35.5519  -12.2683 H       1  LIG1        0.1500
     27 H          20.4853  -38.2084  -12.0596 H       1  LIG1        0.0800
     28 H          19.0699  -39.2687  -12.0464 H       1  LIG1        0.0800
     29 H          19.2465  -36.5693  -10.6505 H       1  LIG1        0.0800
     30 H          19.3725  -38.0895   -9.8059 H       1  LIG1        0.0800
     31 H          15.0584  -36.8937   -8.2577 H       1  LIG1        0.0800
     32 H          14.8485  -37.8078   -9.7785 H       1  LIG1        0.0800
     33 H          13.8257  -35.5910   -9.9774 H       1  LIG1        0.0800
     34 H          15.2479  -35.7563  -11.0632 H       1  LIG1        0.0800
     35 H          17.5741  -33.7782   -9.0460 H       1  LIG1        0.0800
     36 H          17.3629  -34.7567  -10.5429 H       1  LIG1        0.0800
     37 H          18.5634  -36.0219   -8.8126 H       1  LIG1        0.0800
     38 H          17.1582  -35.8455   -7.7176 H       1  LIG1        0.0800
     39 H          14.1076  -32.9375   -9.8053 H       1  LIG1        0.0800
     40 H          15.5997  -31.0461  -10.0070 H       1  LIG1        0.0800
     41 H          15.9746  -31.8892   -8.5019 H       1  LIG1        0.0800
     42 H          17.0430  -32.0711   -9.9261 H       1  LIG1        0.0800
     43 H          15.3127  -34.4402   -8.4052 H       1  LIG1        0.4500
@<TRIPOS>BOND
     1     1     2   ar
     2     1     6   ar
     3     1    23    1
     4     2     3   ar
     5     2    24    1
     6     3     4   ar
     7     3    25    1
     8     4     5   ar
     9     4    26    1
    10     5     6   ar
    11     5     7    1
    12     7     8    1
    13     7    27    1
    14     7    28    1
    15     8     9    1
    16     8    29    1
    17     8    30    1
    18     9    10   am
    19     9    11    2
    20    10    12    1
    21    10    16    1
    22    12    13    1
    23    12    31    1
    24    12    32    1
    25    13    14    1
    26    13    33    1
    27    13    34    1
    28    14    15    1
    29    14    17    1
    30    14    43    1
    31    15    16    1
    32    15    35    1
    33    15    36    1
    34    16    37    1
    35    16    38    1
    36    17    18    1
    37    17    19    1
    38    17    39    1
    39    18    20    1
    40    18    21    1
    41    18    22    1
    42    19    40    1
    43    19    41    1
    44    19    42    1
@<TRIPOS>SUBSTRUCTURE
     1 LIG1        1 TEMP              0 ****  ****    0 ROOT


##########                                Name:     Z200790202.****
##########                        Cluster_Size:                   5
##########                          Grid_Score:          -68.106056
##########                     Grid_vdw_energy:          -28.995695
##########                      Grid_es_energy:          -39.110363
##########           Internal_energy_repulsive:            7.731829

@<TRIPOS>MOLECULE
Z200790202.****
 39 41 1 0 0
SMALL
USER_CHARGES
****

@<TRIPOS>ATOM
      1 C          18.9735  -39.8795  -10.8720 C.ar    1  LIG1       -0.0450
      2 C          19.8658  -38.8421  -10.7793 C.ar    1  LIG1        0.1250
      3 N          19.6412  -37.8082   -9.8552 N.ar    1  LIG1       -0.5750
      4 C          18.5998  -37.8403   -9.0932 C.ar    1  LIG1        0.4490
      5 N          17.6811  -38.8831   -9.1630 N.ar    1  LIG1       -0.4900
      6 C          17.8210  -39.9228  -10.0341 C.ar    1  LIG1        0.7150
      7 S          19.4453  -41.0327  -12.0759 S.2     1  LIG1       -0.0800
      8 C          20.8535  -40.0981  -12.4419 C.ar    1  LIG1       -0.1100
      9 C          20.9395  -38.9681  -11.6742 C.ar    1  LIG1       -0.1500
     10 O          16.9338  -40.7650   -9.9880 O.2     1  LIG1       -0.5700
     11 C          18.3286  -36.7248   -8.0646 C.3     1  LIG1        0.4040
     12 N          17.3176  -35.7575   -8.6622 N.4     1  LIG1       -0.9590
     13 C          17.7564  -35.4132  -10.0650 C.3     1  LIG1        0.3430
     14 C          16.7379  -34.3849  -10.6684 C.3     1  LIG1        0.3430
     15 N          15.3664  -35.0239  -10.7290 N.4     1  LIG1       -0.9590
     16 C          14.9372  -35.3890   -9.3154 C.3     1  LIG1        0.3430
     17 C          15.9617  -36.4086   -8.7061 C.3     1  LIG1        0.3430
     18 C          14.3664  -33.9544  -11.3073 C.3     1  LIG1        0.3430
     19 C          14.6504  -33.5317  -12.7923 C.3     1  LIG1        1.0200
     20 F          13.5394  -33.7201  -13.5152 F       1  LIG1       -0.3400
     21 F          15.0211  -32.2585  -12.8320 F       1  LIG1       -0.3400
     22 F          15.6237  -34.3199  -13.2660 F       1  LIG1       -0.3400
     23 H          16.8444  -38.9522   -8.5682 H       1  LIG1        0.3700
     24 H          21.5353  -40.4218  -13.1877 H       1  LIG1        0.1500
     25 H          21.7316  -38.2706  -11.7494 H       1  LIG1        0.1500
     26 H          19.2744  -36.2227   -7.8942 H       1  LIG1        0.0800
     27 H          17.9506  -37.1773   -7.1552 H       1  LIG1        0.0800
     28 H          17.7665  -36.2971  -10.6917 H       1  LIG1        0.0800
     29 H          18.7299  -34.9326  -10.0340 H       1  LIG1        0.0800
     30 H          17.0723  -34.1374  -11.6703 H       1  LIG1        0.0800
     31 H          16.7216  -33.5094  -10.0274 H       1  LIG1        0.0800
     32 H          13.9684  -35.8781   -9.3369 H       1  LIG1        0.0800
     33 H          14.9202  -34.5061   -8.6851 H       1  LIG1        0.0800
     34 H          15.6349  -36.6450   -7.6981 H       1  LIG1        0.0800
     35 H          15.9831  -37.2919   -9.3353 H       1  LIG1        0.0800
     36 H          14.4578  -33.0418  -10.7309 H       1  LIG1        0.0800
     37 H          13.3505  -34.3324  -11.2792 H       1  LIG1        0.0800
     38 H          17.3465  -34.9224   -8.0684 H       1  LIG1        0.4500
     39 H          15.3564  -35.8397  -11.3464 H       1  LIG1        0.4500
@<TRIPOS>BOND
     1     1     2   ar
     2     1     6   ar
     3     1     7   ar
     4     2     3   ar
     5     2     9   ar
     6     3     4   ar
     7     4     5   ar
     8     4    11    1
     9     5     6   ar
    10     5    23    1
    11     6    10    2
    12     7     8   ar
    13     8     9   ar
    14     8    24    1
    15     9    25    1
    16    11    12    1
    17    11    26    1
    18    11    27    1
    19    12    13    1
    20    12    17    1
    21    12    38    1
    22    13    14    1
    23    13    28    1
    24    13    29    1
    25    14    15    1
    26    14    30    1
    27    14    31    1
    28    15    16    1
    29    15    18    1
    30    15    39    1
    31    16    17    1
    32    16    32    1
    33    16    33    1
    34    17    34    1
    35    17    35    1
    36    18    19    1
    37    18    36    1
    38    18    37    1
    39    19    20    1
    40    19    21    1
    41    19    22    1
@<TRIPOS>SUBSTRUCTURE
     1 LIG1        1 TEMP              0 ****  ****    0 ROOT


##########                                Name:     Z200790202.****
##########                        Cluster_Size:                   3
##########                          Grid_Score:          -66.610565
##########                     Grid_vdw_energy:          -37.341682
##########                      Grid_es_energy:          -29.268881
##########           Internal_energy_repulsive:           12.253139

@<TRIPOS>MOLECULE
Z200790202.****
 39 41 1 0 0
SMALL
USER_CHARGES
****

@<TRIPOS>ATOM
      1 C          15.5118  -31.9021  -11.1426 C.ar    1  LIG1       -0.0450
      2 C          16.1838  -32.2130   -9.9881 C.ar    1  LIG1        0.1250
      3 N          16.0287  -33.4841   -9.4106 N.ar    1  LIG1       -0.5750
      4 C          15.2596  -34.3566   -9.9704 C.ar    1  LIG1        0.4490
      5 N          14.5701  -34.0693  -11.1445 N.ar    1  LIG1       -0.4900
      6 C          14.6606  -32.8598  -11.7674 C.ar    1  LIG1        0.7150
      7 S          15.8463  -30.2861  -11.6703 S.2     1  LIG1       -0.0800
      8 C          16.8995  -30.0462  -10.3199 C.ar    1  LIG1       -0.1100
      9 C          16.9770  -31.1542   -9.5199 C.ar    1  LIG1       -0.1500
     10 O          13.9946  -32.7477  -12.7885 O.2     1  LIG1       -0.5700
     11 C          15.0738  -35.7620   -9.3654 C.3     1  LIG1        0.4040
     12 N          16.3110  -36.5882   -9.6839 N.4     1  LIG1       -0.9590
     13 C          17.3560  -36.3105   -8.6304 C.3     1  LIG1        0.3430
     14 C          18.6466  -37.1299   -8.9791 C.3     1  LIG1        0.3430
     15 N          18.3153  -38.6073   -8.9605 N.4     1  LIG1       -0.9590
     16 C          17.2463  -38.8793  -10.0088 C.3     1  LIG1        0.3430
     17 C          15.9586  -38.0510   -9.6677 C.3     1  LIG1        0.3430
     18 C          19.6226  -39.3948   -9.3464 C.3     1  LIG1        0.3430
     19 C          20.2209  -39.0186  -10.7483 C.3     1  LIG1        1.0200
     20 F          19.2885  -39.2272  -11.6861 F       1  LIG1       -0.3400
     21 F          20.6022  -37.7480  -10.7456 F       1  LIG1       -0.3400
     22 F          21.2662  -39.8229  -10.9793 F       1  LIG1       -0.3400
     23 H          13.9555  -34.7381  -11.6279 H       1  LIG1        0.3700
     24 H          17.4008  -29.1206  -10.1862 H       1  LIG1        0.1500
     25 H          17.5726  -31.2028   -8.6467 H       1  LIG1        0.1500
     26 H          14.2006  -36.1927   -9.8426 H       1  LIG1        0.0800
     27 H          14.9319  -35.6620   -8.2956 H       1  LIG1        0.0800
     28 H          17.0058  -36.6182   -7.6522 H       1  LIG1        0.0800
     29 H          17.6200  -35.2571   -8.6486 H       1  LIG1        0.0800
     30 H          19.3920  -36.9110   -8.2218 H       1  LIG1        0.0800
     31 H          18.9824  -36.8278   -9.9659 H       1  LIG1        0.0800
     32 H          16.9695  -39.9287   -9.9923 H       1  LIG1        0.0800
     33 H          17.5944  -38.5778  -10.9912 H       1  LIG1        0.0800
     34 H          15.2179  -38.2589  -10.4339 H       1  LIG1        0.0800
     35 H          15.6091  -38.3481   -8.6848 H       1  LIG1        0.0800
     36 H          19.3889  -40.4505   -9.4126 H       1  LIG1        0.0800
     37 H          20.4028  -39.2140   -8.6155 H       1  LIG1        0.0800
     38 H          16.6367  -36.2605  -10.5990 H       1  LIG1        0.4500
     39 H          18.0168  -38.9160   -8.0318 H       1  LIG1        0.4500
@<TRIPOS>BOND
     1     1     2   ar
     2     1     6   ar
     3     1     7   ar
     4     2     3   ar
     5     2     9   ar
     6     3     4   ar
     7     4     5   ar
     8     4    11    1
     9     5     6   ar
    10     5    23    1
    11     6    10    2
    12     7     8   ar
    13     8     9   ar
    14     8    24    1
    15     9    25    1
    16    11    12    1
    17    11    26    1
    18    11    27    1
    19    12    13    1
    20    12    17    1
    21    12    38    1
    22    13    14    1
    23    13    28    1
    24    13    29    1
    25    14    15    1
    26    14    30    1
    27    14    31    1
    28    15    16    1
    29    15    18    1
    30    15    39    1
    31    16    17    1
    32    16    32    1
    33    16    33    1
    34    17    34    1
    35    17    35    1
    36    18    19    1
    37    18    36    1
    38    18    37    1
    39    19    20    1
    40    19    21    1
    41    19    22    1
@<TRIPOS>SUBSTRUCTURE
     1 LIG1        1 TEMP              0 ****  ****    0 ROOT


##########                                Name:     Z200790202.****
##########                        Cluster_Size:                   1
##########                          Grid_Score:          -64.007004
##########                     Grid_vdw_energy:          -26.537083
##########                      Grid_es_energy:          -37.469917
##########           Internal_energy_repulsive:            9.881524

@<TRIPOS>MOLECULE
Z200790202.****
 39 41 1 0 0
SMALL
USER_CHARGES
****

@<TRIPOS>ATOM
      1 C          14.2967  -37.9986  -15.5130 C.ar    1  LIG1       -0.0450
      2 C          15.3691  -37.2342  -15.1300 C.ar    1  LIG1        0.1250
      3 N          15.3043  -36.4851  -13.9434 N.ar    1  LIG1       -0.5750
      4 C          14.2392  -36.5226  -13.2152 C.ar    1  LIG1        0.4490
      5 N          13.1387  -37.2932  -13.5778 N.ar    1  LIG1       -0.4900
      6 C          13.1167  -38.0457  -14.7147 C.ar    1  LIG1        0.7150
      7 S          14.5944  -38.8293  -17.0041 S.2     1  LIG1       -0.0800
      8 C          16.1754  -38.1344  -17.0938 C.ar    1  LIG1       -0.1100
      9 C          16.4417  -37.3133  -16.0315 C.ar    1  LIG1       -0.1500
     10 O          12.0804  -38.6681  -14.9082 O.2     1  LIG1       -0.5700
     11 C          14.1395  -35.7175  -11.9045 C.3     1  LIG1        0.4040
     12 N          15.2515  -36.1777  -10.9738 N.4     1  LIG1       -0.9590
     13 C          16.4533  -35.2896  -11.1885 C.3     1  LIG1        0.3430
     14 C          17.6144  -35.7874  -10.2596 C.3     1  LIG1        0.3430
     15 N          17.1756  -35.6741   -8.8147 N.4     1  LIG1       -0.9590
     16 C          15.9514  -36.5540   -8.6078 C.3     1  LIG1        0.3430
     17 C          14.7928  -36.0645   -9.5452 C.3     1  LIG1        0.3430
     18 C          18.3503  -36.2122   -7.9153 C.3     1  LIG1        0.3430
     19 C          19.1183  -37.4439   -8.5135 C.3     1  LIG1        1.0200
     20 F          19.8363  -37.0354   -9.5670 F       1  LIG1       -0.3400
     21 F          19.9088  -37.9709   -7.5876 F       1  LIG1       -0.3400
     22 F          18.2087  -38.3386   -8.9200 F       1  LIG1       -0.3400
     23 H          12.2753  -37.3588  -13.0220 H       1  LIG1        0.3700
     24 H          16.8178  -38.3620  -17.9070 H       1  LIG1        0.1500
     25 H          17.3579  -36.7989  -15.9070 H       1  LIG1        0.1500
     26 H          13.1705  -35.9439  -11.4738 H       1  LIG1        0.0800
     27 H          14.2328  -34.6633  -12.1383 H       1  LIG1        0.0800
     28 H          16.2222  -34.2626  -10.9317 H       1  LIG1        0.0800
     29 H          16.7928  -35.3791  -12.2163 H       1  LIG1        0.0800
     30 H          18.4739  -35.1489  -10.4336 H       1  LIG1        0.0800
     31 H          17.8296  -36.8208  -10.5118 H       1  LIG1        0.0800
     32 H          15.5993  -36.4645   -7.5850 H       1  LIG1        0.0800
     33 H          16.1793  -37.5846   -8.8585 H       1  LIG1        0.0800
     34 H          13.9374  -36.7128   -9.3816 H       1  LIG1        0.0800
     35 H          14.5638  -35.0332   -9.2989 H       1  LIG1        0.0800
     36 H          17.9399  -36.5634   -6.9764 H       1  LIG1        0.0800
     37 H          19.0877  -35.4344   -7.7512 H       1  LIG1        0.0800
     38 H          15.4690  -37.1395  -11.2540 H       1  LIG1        0.4500
     39 H          16.9884  -34.7033   -8.5516 H       1  LIG1        0.4500
@<TRIPOS>BOND
     1     1     2   ar
     2     1     6   ar
     3     1     7   ar
     4     2     3   ar
     5     2     9   ar
     6     3     4   ar
     7     4     5   ar
     8     4    11    1
     9     5     6   ar
    10     5    23    1
    11     6    10    2
    12     7     8   ar
    13     8     9   ar
    14     8    24    1
    15     9    25    1
    16    11    12    1
    17    11    26    1
    18    11    27    1
    19    12    13    1
    20    12    17    1
    21    12    38    1
    22    13    14    1
    23    13    28    1
    24    13    29    1
    25    14    15    1
    26    14    30    1
    27    14    31    1
    28    15    16    1
    29    15    18    1
    30    15    39    1
    31    16    17    1
    32    16    32    1
    33    16    33    1
    34    17    34    1
    35    17    35    1
    36    18    19    1
    37    18    36    1
    38    18    37    1
    39    19    20    1
    40    19    21    1
    41    19    22    1
@<TRIPOS>SUBSTRUCTURE
     1 LIG1        1 TEMP              0 ****  ****    0 ROOT


##########                                Name:     Z200790202.****
##########                        Cluster_Size:                   1
##########                          Grid_Score:          -63.660660
##########                     Grid_vdw_energy:          -31.669203
##########                      Grid_es_energy:          -31.991457
##########           Internal_energy_repulsive:            3.616468

@<TRIPOS>MOLECULE
Z200790202.****
 39 41 1 0 0
SMALL
USER_CHARGES
****

@<TRIPOS>ATOM
      1 C          16.4601  -41.4235  -10.7365 C.ar    1  LIG1       -0.0450
      2 C          15.6567  -40.3210  -10.8785 C.ar    1  LIG1        0.1250
      3 N          16.0343  -39.1017  -10.2919 N.ar    1  LIG1       -0.5750
      4 C          17.1375  -39.0212   -9.6265 C.ar    1  LIG1        0.4490
      5 N          17.9734  -40.1228   -9.4711 N.ar    1  LIG1       -0.4900
      6 C          17.6800  -41.3433  -10.0035 C.ar    1  LIG1        0.7150
      7 S          15.7988  -42.8124  -11.5339 S.2     1  LIG1       -0.0800
      8 C          14.4373  -41.8834  -12.0571 C.ar    1  LIG1       -0.1100
      9 C          14.5033  -40.5835  -11.6337 C.ar    1  LIG1       -0.1500
     10 O          18.5043  -42.2209   -9.7818 O.2     1  LIG1       -0.5700
     11 C          17.5829  -37.6964   -8.9768 C.3     1  LIG1        0.4040
     12 N          16.7924  -36.5619   -9.6115 N.4     1  LIG1       -0.9590
     13 C          15.7295  -36.1157   -8.6367 C.3     1  LIG1        0.3430
     14 C          14.8873  -34.9739   -9.3044 C.3     1  LIG1        0.3430
     15 N          15.7957  -33.8008   -9.6068 N.4     1  LIG1       -0.9590
     16 C          16.8782  -34.2601  -10.5727 C.3     1  LIG1        0.3430
     17 C          17.7140  -35.4106   -9.9105 C.3     1  LIG1        0.3430
     18 C          14.9251  -32.6901  -10.3045 C.3     1  LIG1        0.3430
     19 C          15.7182  -31.3960  -10.7059 C.3     1  LIG1        1.0200
     20 F          14.8505  -30.4764  -11.1459 F       1  LIG1       -0.3400
     21 F          16.3888  -30.9387   -9.6566 F       1  LIG1       -0.3400
     22 F          16.5588  -31.7189  -11.6970 F       1  LIG1       -0.3400
     23 H          18.8647  -40.0994   -8.9575 H       1  LIG1        0.3700
     24 H          13.6725  -42.3313  -12.6404 H       1  LIG1        0.1500
     25 H          13.7646  -39.8593  -11.8559 H       1  LIG1        0.1500
     26 H          18.6398  -37.5848   -9.1918 H       1  LIG1        0.0800
     27 H          17.3995  -37.7554   -7.9102 H       1  LIG1        0.0800
     28 H          16.1787  -35.7279   -7.7301 H       1  LIG1        0.0800
     29 H          15.0565  -36.9425   -8.4287 H       1  LIG1        0.0800
     30 H          14.1207  -34.6724   -8.5985 H       1  LIG1        0.0800
     31 H          14.4534  -35.3647  -10.2192 H       1  LIG1        0.0800
     32 H          17.5612  -33.4425  -10.7800 H       1  LIG1        0.0800
     33 H          16.4334  -34.6444  -11.4846 H       1  LIG1        0.0800
     34 H          18.4719  -35.7222  -10.6228 H       1  LIG1        0.0800
     35 H          18.1583  -35.0306   -8.9969 H       1  LIG1        0.0800
     36 H          14.1658  -32.3524   -9.6097 H       1  LIG1        0.0800
     37 H          14.4772  -33.0761  -11.2134 H       1  LIG1        0.0800
     38 H          16.3574  -36.9604  -10.4498 H       1  LIG1        0.4500
     39 H          16.1981  -33.4045   -8.7536 H       1  LIG1        0.4500
@<TRIPOS>BOND
     1     1     2   ar
     2     1     6   ar
     3     1     7   ar
     4     2     3   ar
     5     2     9   ar
     6     3     4   ar
     7     4     5   ar
     8     4    11    1
     9     5     6   ar
    10     5    23    1
    11     6    10    2
    12     7     8   ar
    13     8     9   ar
    14     8    24    1
    15     9    25    1
    16    11    12    1
    17    11    26    1
    18    11    27    1
    19    12    13    1
    20    12    17    1
    21    12    38    1
    22    13    14    1
    23    13    28    1
    24    13    29    1
    25    14    15    1
    26    14    30    1
    27    14    31    1
    28    15    16    1
    29    15    18    1
    30    15    39    1
    31    16    17    1
    32    16    32    1
    33    16    33    1
    34    17    34    1
    35    17    35    1
    36    18    19    1
    37    18    36    1
    38    18    37    1
    39    19    20    1
    40    19    21    1
    41    19    22    1
@<TRIPOS>SUBSTRUCTURE
     1 LIG1        1 TEMP              0 ****  ****    0 ROOT


##########                                Name:PV-001794469965.****
##########                        Cluster_Size:                   7
##########                          Grid_Score:          -42.295933
##########                     Grid_vdw_energy:          -33.821552
##########                      Grid_es_energy:           -8.474380
##########           Internal_energy_repulsive:            3.482650

@<TRIPOS>MOLECULE
PV-001794469965.****
 40 42 1 0 0
SMALL
USER_CHARGES
****

@<TRIPOS>ATOM
      1 C          15.8684  -32.3736  -10.6748 C.ar    1  LIG1       -0.1440
      2 C          16.1567  -33.4421   -9.8224 C.ar    1  LIG1       -0.1500
      3 C          15.5143  -34.6709   -9.9813 C.ar    1  LIG1       -0.1440
      4 C          14.5791  -34.7935  -11.0078 C.ar    1  LIG1        0.1900
      5 C          14.2798  -33.7482  -11.8694 C.ar    1  LIG1       -0.1500
      6 C          14.9331  -32.5314  -11.7006 C.ar    1  LIG1       -0.1500
      7 C          16.5773  -31.0479  -10.4995 C.3     1  LIG1       -0.0960
      8 F          13.9351  -35.9720  -11.1900 F       1  LIG1       -0.1900
      9 C          15.8515  -35.8480   -9.0741 C.3     1  LIG1        0.0440
     10 C          16.6210  -36.8687   -9.8920 C.2     1  LIG1        0.5690
     11 O          16.9623  -36.6464  -11.0364 O.2     1  LIG1       -0.5700
     12 N          16.8838  -38.0886   -9.3146 N.am    1  LIG1       -0.5470
     13 C          17.5801  -39.1643   -9.9053 C.ar    1  LIG1        0.1170
     14 C          18.9299  -39.0489  -10.2329 C.ar    1  LIG1       -0.1500
     15 C          19.5551  -40.1311  -10.8484 C.ar    1  LIG1       -0.0230
     16 C          18.8784  -41.3293  -11.0932 C.ar    1  LIG1       -0.1500
     17 C          17.5372  -41.4339  -10.7291 C.ar    1  LIG1       -0.1500
     18 C          16.8842  -40.3534  -10.1371 C.ar    1  LIG1       -0.1500
     19 N          20.9316  -40.0084  -11.2513 N.ar    1  LIG1        0.5930
     20 C          21.4625  -39.0815  -12.0535 C.ar    1  LIG1        0.0070
     21 N          22.7147  -39.3202  -12.1796 N.ar    1  LIG1       -0.3380
     22 N          22.9653  -40.4335  -11.4375 N.ar    1  LIG1        0.0000
     23 N          21.8743  -40.8567  -10.8718 N.ar    1  LIG1       -0.4180
     24 C          20.6773  -37.9505  -12.6913 C.3     1  LIG1       -0.0600
     25 H          16.8691  -33.3118   -9.0472 H       1  LIG1        0.1500
     26 H          13.5662  -33.8798  -12.6406 H       1  LIG1        0.1500
     27 H          14.7180  -31.7237  -12.3529 H       1  LIG1        0.1500
     28 H          15.9070  -30.2448  -10.8068 H       1  LIG1        0.0800
     29 H          16.8445  -30.9226   -9.4489 H       1  LIG1        0.0800
     30 H          17.4722  -31.0560  -11.1225 H       1  LIG1        0.0800
     31 H          14.9417  -36.3079   -8.7146 H       1  LIG1        0.0800
     32 H          16.4912  -35.5163   -8.2696 H       1  LIG1        0.0800
     33 H          16.5466  -38.2096   -8.3494 H       1  LIG1        0.3700
     34 H          19.4643  -38.1598  -10.0151 H       1  LIG1        0.1500
     35 H          19.3786  -42.1482  -11.5478 H       1  LIG1        0.1500
     36 H          17.0117  -42.3389  -10.9058 H       1  LIG1        0.1500
     37 H          15.8626  -40.4315   -9.8705 H       1  LIG1        0.1500
     38 H          21.2808  -37.5308  -13.4967 H       1  LIG1        0.0800
     39 H          19.7396  -38.3439  -13.0853 H       1  LIG1        0.0800
     40 H          20.4842  -37.1902  -11.9348 H       1  LIG1        0.0800
@<TRIPOS>BOND
     1     1     2   ar
     2     1     6   ar
     3     1     7    1
     4     2     3   ar
     5     2    25    1
     6     3     4   ar
     7     3     9    1
     8     4     5   ar
     9     4     8    1
    10     5     6   ar
    11     5    26    1
    12     6    27    1
    13     7    28    1
    14     7    29    1
    15     7    30    1
    16     9    10    1
    17     9    31    1
    18     9    32    1
    19    10    11    2
    20    10    12   am
    21    12    13    1
    22    12    33    1
    23    13    14   ar
    24    13    18   ar
    25    14    15   ar
    26    14    34    1
    27    15    16   ar
    28    15    19    1
    29    16    17   ar
    30    16    35    1
    31    17    18   ar
    32    17    36    1
    33    18    37    1
    34    19    20   ar
    35    19    23   ar
    36    20    21   ar
    37    20    24    1
    38    21    22   ar
    39    22    23   ar
    40    24    38    1
    41    24    39    1
    42    24    40    1
@<TRIPOS>SUBSTRUCTURE
     1 LIG1        1 TEMP              0 ****  ****    0 ROOT


##########                                Name:PV-001794469965.****
##########                        Cluster_Size:                   1
##########                          Grid_Score:          -38.957623
##########                     Grid_vdw_energy:          -33.999729
##########                      Grid_es_energy:           -4.957892
##########           Internal_energy_repulsive:            7.386730

@<TRIPOS>MOLECULE
PV-001794469965.****
 40 42 1 0 0
SMALL
USER_CHARGES
****

@<TRIPOS>ATOM
      1 C          16.1164  -31.4805  -10.6016 C.ar    1  LIG1       -0.1440
      2 C          16.2186  -32.6153   -9.7935 C.ar    1  LIG1       -0.1500
      3 C          15.5935  -33.8078  -10.1610 C.ar    1  LIG1       -0.1440
      4 C          14.8654  -33.8266  -11.3497 C.ar    1  LIG1        0.1900
      5 C          14.7536  -32.7140  -12.1706 C.ar    1  LIG1       -0.1500
      6 C          15.3873  -31.5345  -11.7922 C.ar    1  LIG1       -0.1500
      7 C          16.8055  -30.1947  -10.1984 C.3     1  LIG1       -0.0960
      8 F          14.2441  -34.9673  -11.7365 F       1  LIG1       -0.1900
      9 C          15.7314  -35.0564   -9.2983 C.3     1  LIG1        0.0440
     10 C          15.9560  -36.2426  -10.2177 C.2     1  LIG1        0.5690
     11 O          16.8522  -36.2568  -11.0374 O.2     1  LIG1       -0.5700
     12 N          15.0771  -37.2967  -10.1329 N.am    1  LIG1       -0.5470
     13 C          15.1136  -38.4834  -10.8952 C.ar    1  LIG1        0.1170
     14 C          15.9853  -39.5195  -10.5645 C.ar    1  LIG1       -0.1500
     15 C          16.0036  -40.6518  -11.3759 C.ar    1  LIG1       -0.0230
     16 C          15.1420  -40.7877  -12.4681 C.ar    1  LIG1       -0.1500
     17 C          14.2564  -39.7525  -12.7624 C.ar    1  LIG1       -0.1500
     18 C          14.2406  -38.5984  -11.9799 C.ar    1  LIG1       -0.1500
     19 N          16.9412  -41.7052  -11.0874 N.ar    1  LIG1        0.5930
     20 C          18.2690  -41.6029  -10.9816 C.ar    1  LIG1        0.0070
     21 N          18.7486  -42.7638  -10.7298 N.ar    1  LIG1       -0.3380
     22 N          17.6850  -43.6121  -10.6850 N.ar    1  LIG1        0.0000
     23 N          16.5794  -42.9656  -10.9067 N.ar    1  LIG1       -0.4180
     24 C          19.0430  -40.3076  -11.1420 C.3     1  LIG1       -0.0600
     25 H          16.7752  -32.5637   -8.8919 H       1  LIG1        0.1500
     26 H          14.1950  -32.7671  -13.0686 H       1  LIG1        0.1500
     27 H          15.3144  -30.6761  -12.4104 H       1  LIG1        0.1500
     28 H          16.2208  -29.3502  -10.5635 H       1  LIG1        0.0800
     29 H          16.8732  -30.1526   -9.1100 H       1  LIG1        0.0800
     30 H          17.8012  -30.1888  -10.6431 H       1  LIG1        0.0800
     31 H          14.8207  -35.2197   -8.7393 H       1  LIG1        0.0800
     32 H          16.5964  -34.9632   -8.6584 H       1  LIG1        0.0800
     33 H          14.3325  -37.2039   -9.4280 H       1  LIG1        0.3700
     34 H          16.6147  -39.4452   -9.7148 H       1  LIG1        0.1500
     35 H          15.1601  -41.6667  -13.0635 H       1  LIG1        0.1500
     36 H          13.5940  -39.8434  -13.5866 H       1  LIG1        0.1500
     37 H          13.5742  -37.8090  -12.2113 H       1  LIG1        0.1500
     38 H          20.0946  -40.5568  -11.2868 H       1  LIG1        0.0800
     39 H          18.6587  -39.7663  -12.0071 H       1  LIG1        0.0800
     40 H          18.9215  -39.7145  -10.2358 H       1  LIG1        0.0800
@<TRIPOS>BOND
     1     1     2   ar
     2     1     6   ar
     3     1     7    1
     4     2     3   ar
     5     2    25    1
     6     3     4   ar
     7     3     9    1
     8     4     5   ar
     9     4     8    1
    10     5     6   ar
    11     5    26    1
    12     6    27    1
    13     7    28    1
    14     7    29    1
    15     7    30    1
    16     9    10    1
    17     9    31    1
    18     9    32    1
    19    10    11    2
    20    10    12   am
    21    12    13    1
    22    12    33    1
    23    13    14   ar
    24    13    18   ar
    25    14    15   ar
    26    14    34    1
    27    15    16   ar
    28    15    19    1
    29    16    17   ar
    30    16    35    1
    31    17    18   ar
    32    17    36    1
    33    18    37    1
    34    19    20   ar
    35    19    23   ar
    36    20    21   ar
    37    20    24    1
    38    21    22   ar
    39    22    23   ar
    40    24    38    1
    41    24    39    1
    42    24    40    1
@<TRIPOS>SUBSTRUCTURE
     1 LIG1        1 TEMP              0 ****  ****    0 ROOT


##########                                Name:PV-001794469965.****
##########                        Cluster_Size:                   1
##########                          Grid_Score:          -37.842487
##########                     Grid_vdw_energy:          -35.095898
##########                      Grid_es_energy:           -2.746590
##########           Internal_energy_repulsive:            3.165285

@<TRIPOS>MOLECULE
PV-001794469965.****
 40 42 1 0 0
SMALL
USER_CHARGES
****

@<TRIPOS>ATOM
      1 C          15.5828  -31.8718  -10.8114 C.ar    1  LIG1       -0.1440
      2 C          15.3663  -32.5431  -12.0171 C.ar    1  LIG1       -0.1500
      3 C          14.9193  -33.8653  -12.0238 C.ar    1  LIG1       -0.1440
      4 C          14.7030  -34.4900  -10.7965 C.ar    1  LIG1        0.1900
      5 C          14.9066  -33.8424   -9.5867 C.ar    1  LIG1       -0.1500
      6 C          15.3472  -32.5227   -9.5978 C.ar    1  LIG1       -0.1500
      7 C          16.0590  -30.4352  -10.8154 C.3     1  LIG1       -0.0960
      8 F          14.2705  -35.7740  -10.7655 F       1  LIG1       -0.1900
      9 C          14.6501  -34.5888  -13.3377 C.3     1  LIG1        0.0440
     10 C          15.7509  -35.6121  -13.5470 C.2     1  LIG1        0.5690
     11 O          15.5910  -36.5899  -14.2496 O.2     1  LIG1       -0.5700
     12 N          16.9352  -35.4288  -12.8729 N.am    1  LIG1       -0.5470
     13 C          18.0725  -36.2619  -12.9322 C.ar    1  LIG1        0.1170
     14 C          18.2053  -37.3531  -12.0753 C.ar    1  LIG1       -0.1500
     15 C          19.3672  -38.1176  -12.1544 C.ar    1  LIG1       -0.0230
     16 C          20.3634  -37.8459  -13.0965 C.ar    1  LIG1       -0.1500
     17 C          20.1958  -36.7686  -13.9648 C.ar    1  LIG1       -0.1500
     18 C          19.0532  -35.9733  -13.8844 C.ar    1  LIG1       -0.1500
     19 N          19.5508  -39.2102  -11.2353 N.ar    1  LIG1        0.5930
     20 C          19.5212  -39.1611   -9.9007 C.ar    1  LIG1        0.0070
     21 N          19.7411  -40.3378   -9.4445 N.ar    1  LIG1       -0.3380
     22 N          19.9187  -41.1388  -10.5308 N.ar    1  LIG1        0.0000
     23 N          19.8054  -40.4488  -11.6265 N.ar    1  LIG1       -0.4180
     24 C          19.2679  -37.8998   -9.0960 C.3     1  LIG1       -0.0600
     25 H          15.5475  -32.0394  -12.9330 H       1  LIG1        0.1500
     26 H          14.7278  -34.3482   -8.6737 H       1  LIG1        0.1500
     27 H          15.5044  -32.0126   -8.6817 H       1  LIG1        0.1500
     28 H          16.6748  -30.2640   -9.9322 H       1  LIG1        0.0800
     29 H          16.6495  -30.2577  -11.7159 H       1  LIG1        0.0800
     30 H          15.1826  -29.7866  -10.7998 H       1  LIG1        0.0800
     31 H          14.6727  -33.8841  -14.1571 H       1  LIG1        0.0800
     32 H          13.7109  -35.1187  -13.2759 H       1  LIG1        0.0800
     33 H          16.9890  -34.5877  -12.2818 H       1  LIG1        0.3700
     34 H          17.4383  -37.5935  -11.3842 H       1  LIG1        0.1500
     35 H          21.2335  -38.4518  -13.1515 H       1  LIG1        0.1500
     36 H          20.9425  -36.5527  -14.6874 H       1  LIG1        0.1500
     37 H          18.9326  -35.1494  -14.5381 H       1  LIG1        0.1500
     38 H          19.5755  -38.0868   -8.0668 H       1  LIG1        0.0800
     39 H          19.8482  -37.0810   -9.5226 H       1  LIG1        0.0800
     40 H          18.2028  -37.6718   -9.1315 H       1  LIG1        0.0800
@<TRIPOS>BOND
     1     1     2   ar
     2     1     6   ar
     3     1     7    1
     4     2     3   ar
     5     2    25    1
     6     3     4   ar
     7     3     9    1
     8     4     5   ar
     9     4     8    1
    10     5     6   ar
    11     5    26    1
    12     6    27    1
    13     7    28    1
    14     7    29    1
    15     7    30    1
    16     9    10    1
    17     9    31    1
    18     9    32    1
    19    10    11    2
    20    10    12   am
    21    12    13    1
    22    12    33    1
    23    13    14   ar
    24    13    18   ar
    25    14    15   ar
    26    14    34    1
    27    15    16   ar
    28    15    19    1
    29    16    17   ar
    30    16    35    1
    31    17    18   ar
    32    17    36    1
    33    18    37    1
    34    19    20   ar
    35    19    23   ar
    36    20    21   ar
    37    20    24    1
    38    21    22   ar
    39    22    23   ar
    40    24    38    1
    41    24    39    1
    42    24    40    1
@<TRIPOS>SUBSTRUCTURE
     1 LIG1        1 TEMP              0 ****  ****    0 ROOT


##########                                Name:PV-001794469965.****
##########                        Cluster_Size:                   1
##########                          Grid_Score:          -37.043987
##########                     Grid_vdw_energy:          -34.003651
##########                      Grid_es_energy:           -3.040338
##########           Internal_energy_repulsive:           61.561764

@<TRIPOS>MOLECULE
PV-001794469965.****
 40 42 1 0 0
SMALL
USER_CHARGES
****

@<TRIPOS>ATOM
      1 C          21.4753  -42.6227  -10.0234 C.ar    1  LIG1       -0.1440
      2 C          20.5478  -41.8756   -9.2934 C.ar    1  LIG1       -0.1500
      3 C          20.2087  -40.5811   -9.6896 C.ar    1  LIG1       -0.1440
      4 C          20.8257  -40.0610  -10.8263 C.ar    1  LIG1        0.1900
      5 C          21.7461  -40.7853  -11.5697 C.ar    1  LIG1       -0.1500
      6 C          22.0690  -42.0765  -11.1641 C.ar    1  LIG1       -0.1500
      7 C          21.8293  -44.0290   -9.5902 C.3     1  LIG1       -0.0960
      8 F          20.5214  -38.8064  -11.2388 F       1  LIG1       -0.1900
      9 C          19.1722  -39.7767   -8.9144 C.3     1  LIG1        0.0440
     10 C          18.4813  -38.8372   -9.8855 C.2     1  LIG1        0.5690
     11 O          17.4511  -39.1447  -10.4506 O.2     1  LIG1       -0.5700
     12 N          19.0848  -37.6308  -10.1517 N.am    1  LIG1       -0.5470
     13 C          18.6060  -36.6261  -11.0191 C.ar    1  LIG1        0.1170
     14 C          17.8302  -35.5740  -10.5357 C.ar    1  LIG1       -0.1500
     15 C          17.3543  -34.6319  -11.4452 C.ar    1  LIG1       -0.0230
     16 C          17.6776  -34.6928  -12.8037 C.ar    1  LIG1       -0.1500
     17 C          18.4808  -35.7362  -13.2606 C.ar    1  LIG1       -0.1500
     18 C          18.9450  -36.7055  -12.3721 C.ar    1  LIG1       -0.1500
     19 N          16.4995  -33.5736  -10.9748 N.ar    1  LIG1        0.5930
     20 C          15.3500  -33.6964  -10.3053 C.ar    1  LIG1        0.0070
     21 N          14.8833  -32.5252  -10.0784 N.ar    1  LIG1       -0.3380
     22 N          15.7684  -31.6505  -10.6303 N.ar    1  LIG1        0.0000
     23 N          16.7557  -32.2915  -11.1814 N.ar    1  LIG1       -0.4180
     24 C          14.7322  -35.0222   -9.9014 C.3     1  LIG1       -0.0600
     25 H          20.1023  -42.3001   -8.4292 H       1  LIG1        0.1500
     26 H          22.1916  -40.3584  -12.4303 H       1  LIG1        0.1500
     27 H          22.7681  -42.6445  -11.7234 H       1  LIG1        0.1500
     28 H          22.8645  -44.2337   -9.8644 H       1  LIG1        0.0800
     29 H          21.7123  -44.1090   -8.5081 H       1  LIG1        0.0800
     30 H          21.1570  -44.7207  -10.0988 H       1  LIG1        0.0800
     31 H          19.6599  -39.1872   -8.1507 H       1  LIG1        0.0800
     32 H          18.4252  -40.4418   -8.5069 H       1  LIG1        0.0800
     33 H          19.9649  -37.4492   -9.6495 H       1  LIG1        0.3700
     34 H          17.6122  -35.4945   -9.5014 H       1  LIG1        0.1500
     35 H          17.3186  -33.9546  -13.4772 H       1  LIG1        0.1500
     36 H          18.7370  -35.7931  -14.2889 H       1  LIG1        0.1500
     37 H          19.5466  -37.5029  -12.7230 H       1  LIG1        0.1500
     38 H          13.6911  -34.8429   -9.6316 H       1  LIG1        0.0800
     39 H          14.7926  -35.7153  -10.7411 H       1  LIG1        0.0800
     40 H          15.2779  -35.4139   -9.0432 H       1  LIG1        0.0800
@<TRIPOS>BOND
     1     1     2   ar
     2     1     6   ar
     3     1     7    1
     4     2     3   ar
     5     2    25    1
     6     3     4   ar
     7     3     9    1
     8     4     5   ar
     9     4     8    1
    10     5     6   ar
    11     5    26    1
    12     6    27    1
    13     7    28    1
    14     7    29    1
    15     7    30    1
    16     9    10    1
    17     9    31    1
    18     9    32    1
    19    10    11    2
    20    10    12   am
    21    12    13    1
    22    12    33    1
    23    13    14   ar
    24    13    18   ar
    25    14    15   ar
    26    14    34    1
    27    15    16   ar
    28    15    19    1
    29    16    17   ar
    30    16    35    1
    31    17    18   ar
    32    17    36    1
    33    18    37    1
    34    19    20   ar
    35    19    23   ar
    36    20    21   ar
    37    20    24    1
    38    21    22   ar
    39    22    23   ar
    40    24    38    1
    41    24    39    1
    42    24    40    1
@<TRIPOS>SUBSTRUCTURE
     1 LIG1        1 TEMP              0 ****  ****    0 ROOT


##########                                Name:      Z28052960.****
##########                        Cluster_Size:                   6
##########                          Grid_Score:          -38.630806
##########                     Grid_vdw_energy:          -31.639553
##########                      Grid_es_energy:           -6.991255
##########           Internal_energy_repulsive:            2.681736

@<TRIPOS>MOLECULE
Z28052960.****
 34 36 1 0 0
SMALL
USER_CHARGES
****

@<TRIPOS>ATOM
      1 C          14.6387  -40.3349  -13.9728 C.ar    1  LIG1        0.1900
      2 C          13.7717  -39.7782  -13.0330 C.ar    1  LIG1       -0.1440
      3 C          13.3356  -40.5917  -11.9859 C.ar    1  LIG1       -0.1500
      4 C          13.7525  -41.9214  -11.9041 C.ar    1  LIG1       -0.1500
      5 C          14.6120  -42.4545  -12.8643 C.ar    1  LIG1       -0.1500
      6 C          15.0627  -41.6558  -13.9097 C.ar    1  LIG1       -0.1500
      7 C          13.3188  -38.3271  -13.1185 C.3     1  LIG1        0.0440
      8 C          14.4498  -37.4825  -12.5732 C.2     1  LIG1        0.5690
      9 N          14.3283  -37.0350  -11.2809 N.am    1  LIG1       -0.5470
     10 O          15.4139  -37.1807  -13.2470 O.2     1  LIG1       -0.5700
     11 C          15.2508  -36.2387  -10.5666 C.ar    1  LIG1        0.1170
     12 C          15.4412  -34.8882  -10.8661 C.ar    1  LIG1       -0.1500
     13 C          16.3707  -34.1723  -10.1156 C.ar    1  LIG1       -0.0230
     14 C          17.1192  -34.7723   -9.0977 C.ar    1  LIG1       -0.1500
     15 C          16.9223  -36.1237   -8.8247 C.ar    1  LIG1       -0.1500
     16 C          15.9903  -36.8588   -9.5562 C.ar    1  LIG1       -0.1500
     17 N          16.5595  -32.7775  -10.3958 N.ar    1  LIG1        0.5930
     18 N          16.9015  -32.2886  -11.5767 N.ar    1  LIG1       -0.4180
     19 N          16.9825  -31.0002  -11.4026 N.ar    1  LIG1        0.0000
     20 N          16.6889  -30.6736  -10.1123 N.ar    1  LIG1       -0.3380
     21 C          16.4335  -31.7847   -9.5290 C.ar    1  LIG1        0.0360
     22 F          15.1071  -39.5638  -14.9914 F       1  LIG1       -0.1900
     23 H          12.6863  -40.2013  -11.2425 H       1  LIG1        0.1500
     24 H          13.4132  -42.5294  -11.1050 H       1  LIG1        0.1500
     25 H          14.9221  -43.4658  -12.7945 H       1  LIG1        0.1500
     26 H          15.7194  -42.0426  -14.6457 H       1  LIG1        0.1500
     27 H          12.4503  -38.1802  -12.4923 H       1  LIG1        0.0800
     28 H          13.1368  -38.0563  -14.1485 H       1  LIG1        0.0800
     29 H          13.4298  -37.2414  -10.8226 H       1  LIG1        0.3700
     30 H          14.8948  -34.4195  -11.6447 H       1  LIG1        0.1500
     31 H          17.8307  -34.2143   -8.5440 H       1  LIG1        0.1500
     32 H          17.4821  -36.5965   -8.0573 H       1  LIG1        0.1500
     33 H          15.8390  -37.8863   -9.3432 H       1  LIG1        0.1500
     34 H          16.1580  -31.9681   -8.5237 H       1  LIG1        0.1500
@<TRIPOS>BOND
     1     1     2   ar
     2     1     6   ar
     3     1    22    1
     4     2     3   ar
     5     2     7    1
     6     3     4   ar
     7     3    23    1
     8     4     5   ar
     9     4    24    1
    10     5     6   ar
    11     5    25    1
    12     6    26    1
    13     7     8    1
    14     7    27    1
    15     7    28    1
    16     8     9   am
    17     8    10    2
    18     9    11    1
    19     9    29    1
    20    11    12   ar
    21    11    16   ar
    22    12    13   ar
    23    12    30    1
    24    13    14   ar
    25    13    17    1
    26    14    15   ar
    27    14    31    1
    28    15    16   ar
    29    15    32    1
    30    16    33    1
    31    17    18   ar
    32    17    21   ar
    33    18    19   ar
    34    19    20   ar
    35    20    21   ar
    36    21    34    1
@<TRIPOS>SUBSTRUCTURE
     1 LIG1        1 TEMP              0 ****  ****    0 ROOT


##########                                Name:      Z28052960.****
##########                        Cluster_Size:                   1
##########                          Grid_Score:          -38.472679
##########                     Grid_vdw_energy:          -33.535263
##########                      Grid_es_energy:           -4.937418
##########           Internal_energy_repulsive:            4.765136

@<TRIPOS>MOLECULE
Z28052960.****
 34 36 1 0 0
SMALL
USER_CHARGES
****

@<TRIPOS>ATOM
      1 C          20.2557  -41.3437  -10.0705 C.ar    1  LIG1        0.1900
      2 C          20.0893  -39.9595  -10.0372 C.ar    1  LIG1       -0.1440
      3 C          20.7609  -39.1988  -10.9957 C.ar    1  LIG1       -0.1500
      4 C          21.5795  -39.8180  -11.9417 C.ar    1  LIG1       -0.1500
      5 C          21.7354  -41.2038  -11.9449 C.ar    1  LIG1       -0.1500
      6 C          21.0673  -41.9777  -11.0022 C.ar    1  LIG1       -0.1500
      7 C          19.1941  -39.2827   -9.0083 C.3     1  LIG1        0.0440
      8 C          18.2030  -38.4375   -9.7786 C.2     1  LIG1        0.5690
      9 N          17.5821  -37.4226   -9.0934 N.am    1  LIG1       -0.5470
     10 O          17.9363  -38.6548  -10.9433 O.2     1  LIG1       -0.5700
     11 C          16.6287  -36.5127   -9.6016 C.ar    1  LIG1        0.1170
     12 C          16.8770  -35.1394   -9.6493 C.ar    1  LIG1       -0.1500
     13 C          15.8846  -34.3087  -10.1639 C.ar    1  LIG1       -0.0230
     14 C          14.6572  -34.8105  -10.6089 C.ar    1  LIG1       -0.1500
     15 C          14.4261  -36.1822  -10.5400 C.ar    1  LIG1       -0.1500
     16 C          15.4082  -37.0348  -10.0376 C.ar    1  LIG1       -0.1500
     17 N          16.1350  -32.8977  -10.2418 N.ar    1  LIG1        0.5930
     18 N          16.4590  -32.1347   -9.2106 N.ar    1  LIG1       -0.4180
     19 N          16.5812  -30.9335   -9.6995 N.ar    1  LIG1        0.0000
     20 N          16.3373  -30.9369  -11.0404 N.ar    1  LIG1       -0.3380
     21 C          16.0708  -32.1543  -11.3354 C.ar    1  LIG1        0.0360
     22 F          19.5941  -42.1198   -9.1696 F       1  LIG1       -0.1900
     23 H          20.6492  -38.1434  -11.0125 H       1  LIG1        0.1500
     24 H          22.0853  -39.2292  -12.6635 H       1  LIG1        0.1500
     25 H          22.3603  -41.6649  -12.6665 H       1  LIG1        0.1500
     26 H          21.1704  -43.0321  -10.9923 H       1  LIG1        0.1500
     27 H          19.7874  -38.6296   -8.3843 H       1  LIG1        0.0800
     28 H          18.6588  -40.0271   -8.4368 H       1  LIG1        0.0800
     29 H          17.7815  -37.3820   -8.0841 H       1  LIG1        0.3700
     30 H          17.7951  -34.7384   -9.3019 H       1  LIG1        0.1500
     31 H          13.9088  -34.1618  -10.9873 H       1  LIG1        0.1500
     32 H          13.5003  -36.5810  -10.8714 H       1  LIG1        0.1500
     33 H          15.2315  -38.0792   -9.9906 H       1  LIG1        0.1500
     34 H          15.8301  -32.5811  -12.2735 H       1  LIG1        0.1500
@<TRIPOS>BOND
     1     1     2   ar
     2     1     6   ar
     3     1    22    1
     4     2     3   ar
     5     2     7    1
     6     3     4   ar
     7     3    23    1
     8     4     5   ar
     9     4    24    1
    10     5     6   ar
    11     5    25    1
    12     6    26    1
    13     7     8    1
    14     7    27    1
    15     7    28    1
    16     8     9   am
    17     8    10    2
    18     9    11    1
    19     9    29    1
    20    11    12   ar
    21    11    16   ar
    22    12    13   ar
    23    12    30    1
    24    13    14   ar
    25    13    17    1
    26    14    15   ar
    27    14    31    1
    28    15    16   ar
    29    15    32    1
    30    16    33    1
    31    17    18   ar
    32    17    21   ar
    33    18    19   ar
    34    19    20   ar
    35    20    21   ar
    36    21    34    1
@<TRIPOS>SUBSTRUCTURE
     1 LIG1        1 TEMP              0 ****  ****    0 ROOT


##########                                Name:      Z28052960.****
##########                        Cluster_Size:                   1
##########                          Grid_Score:          -38.082924
##########                     Grid_vdw_energy:          -33.338909
##########                      Grid_es_energy:           -4.744014
##########           Internal_energy_repulsive:            2.893585

@<TRIPOS>MOLECULE
Z28052960.****
 34 36 1 0 0
SMALL
USER_CHARGES
****

@<TRIPOS>ATOM
      1 C          15.0771  -32.3799  -11.5939 C.ar    1  LIG1        0.1900
      2 C          15.3848  -33.4096  -10.7052 C.ar    1  LIG1       -0.1440
      3 C          16.2244  -33.1138   -9.6300 C.ar    1  LIG1       -0.1500
      4 C          16.7419  -31.8271   -9.4715 C.ar    1  LIG1       -0.1500
      5 C          16.4252  -30.8192  -10.3819 C.ar    1  LIG1       -0.1500
      6 C          15.5836  -31.0944  -11.4542 C.ar    1  LIG1       -0.1500
      7 C          14.8185  -34.8127  -10.8744 C.3     1  LIG1        0.0440
      8 C          15.9991  -35.7576  -10.9305 C.2     1  LIG1        0.5690
      9 N          16.2223  -36.5445   -9.8277 N.am    1  LIG1       -0.5470
     10 O          16.7426  -35.8067  -11.8894 O.2     1  LIG1       -0.5700
     11 C          17.2551  -37.4925   -9.6546 C.ar    1  LIG1        0.1170
     12 C          17.1543  -38.7892  -10.1629 C.ar    1  LIG1       -0.1500
     13 C          18.2162  -39.6644   -9.9485 C.ar    1  LIG1       -0.0230
     14 C          19.3546  -39.2844   -9.2301 C.ar    1  LIG1       -0.1500
     15 C          19.4282  -37.9902   -8.7211 C.ar    1  LIG1       -0.1500
     16 C          18.3818  -37.0930   -8.9312 C.ar    1  LIG1       -0.1500
     17 N          18.1374  -40.9928  -10.4859 N.ar    1  LIG1        0.5930
     18 N          17.1684  -41.8537  -10.2204 N.ar    1  LIG1       -0.4180
     19 N          17.4771  -42.9310  -10.8846 N.ar    1  LIG1        0.0000
     20 N          18.6397  -42.7507  -11.5727 N.ar    1  LIG1       -0.3380
     21 C          19.0116  -41.5545  -11.3063 C.ar    1  LIG1        0.0360
     22 F          14.2389  -32.6241  -12.6376 F       1  LIG1       -0.1900
     23 H          16.4712  -33.8667   -8.9236 H       1  LIG1        0.1500
     24 H          17.3795  -31.6153   -8.6517 H       1  LIG1        0.1500
     25 H          16.8241  -29.8454  -10.2539 H       1  LIG1        0.1500
     26 H          15.3288  -30.3401  -12.1532 H       1  LIG1        0.1500
     27 H          14.2841  -34.8780  -11.8116 H       1  LIG1        0.0800
     28 H          14.1991  -35.0666  -10.0264 H       1  LIG1        0.0800
     29 H          15.6141  -36.3569   -9.0185 H       1  LIG1        0.3700
     30 H          16.2926  -39.1008  -10.6964 H       1  LIG1        0.1500
     31 H          20.1487  -39.9678   -9.0670 H       1  LIG1        0.1500
     32 H          20.2832  -37.6843   -8.1722 H       1  LIG1        0.1500
     33 H          18.4424  -36.1068   -8.5467 H       1  LIG1        0.1500
     34 H          19.8627  -41.0243  -11.6450 H       1  LIG1        0.1500
@<TRIPOS>BOND
     1     1     2   ar
     2     1     6   ar
     3     1    22    1
     4     2     3   ar
     5     2     7    1
     6     3     4   ar
     7     3    23    1
     8     4     5   ar
     9     4    24    1
    10     5     6   ar
    11     5    25    1
    12     6    26    1
    13     7     8    1
    14     7    27    1
    15     7    28    1
    16     8     9   am
    17     8    10    2
    18     9    11    1
    19     9    29    1
    20    11    12   ar
    21    11    16   ar
    22    12    13   ar
    23    12    30    1
    24    13    14   ar
    25    13    17    1
    26    14    15   ar
    27    14    31    1
    28    15    16   ar
    29    15    32    1
    30    16    33    1
    31    17    18   ar
    32    17    21   ar
    33    18    19   ar
    34    19    20   ar
    35    20    21   ar
    36    21    34    1
@<TRIPOS>SUBSTRUCTURE
     1 LIG1        1 TEMP              0 ****  ****    0 ROOT


##########                                Name:      Z28052960.****
##########                        Cluster_Size:                   1
##########                          Grid_Score:          -37.483738
##########                     Grid_vdw_energy:          -29.141253
##########                      Grid_es_energy:           -8.342486
##########           Internal_energy_repulsive:            3.117674

@<TRIPOS>MOLECULE
Z28052960.****
 34 36 1 0 0
SMALL
USER_CHARGES
****

@<TRIPOS>ATOM
      1 C          14.8033  -35.0750  -11.0659 C.ar    1  LIG1        0.1900
      2 C          15.6225  -34.8906   -9.9525 C.ar    1  LIG1       -0.1440
      3 C          16.1838  -33.6274   -9.7580 C.ar    1  LIG1       -0.1500
      4 C          15.9340  -32.5965  -10.6654 C.ar    1  LIG1       -0.1500
      5 C          15.1187  -32.8126  -11.7759 C.ar    1  LIG1       -0.1500
      6 C          14.5448  -34.0626  -11.9807 C.ar    1  LIG1       -0.1500
      7 C          15.8932  -36.0128   -8.9598 C.3     1  LIG1        0.0440
      8 C          16.5546  -37.1323   -9.7340 C.2     1  LIG1        0.5690
      9 N          16.1890  -38.4158   -9.4114 N.am    1  LIG1       -0.5470
     10 O          17.3952  -36.9210  -10.5845 O.2     1  LIG1       -0.5700
     11 C          16.6697  -39.6089   -9.9951 C.ar    1  LIG1        0.1170
     12 C          17.9512  -40.0937   -9.7256 C.ar    1  LIG1       -0.1500
     13 C          18.3503  -41.2769  -10.3422 C.ar    1  LIG1       -0.0230
     14 C          17.5155  -41.9685  -11.2262 C.ar    1  LIG1       -0.1500
     15 C          16.2463  -41.4599  -11.4904 C.ar    1  LIG1       -0.1500
     16 C          15.8208  -40.2820  -10.8775 C.ar    1  LIG1       -0.1500
     17 N          19.6556  -41.8003  -10.0559 N.ar    1  LIG1        0.5930
     18 N          20.7865  -41.1386  -10.2394 N.ar    1  LIG1       -0.4180
     19 N          21.7275  -41.9635   -9.8773 N.ar    1  LIG1        0.0000
     20 N          21.1918  -43.1459   -9.4619 N.ar    1  LIG1       -0.3380
     21 C          19.9244  -43.0074   -9.5831 C.ar    1  LIG1        0.0360
     22 F          14.2160  -36.2849  -11.2723 F       1  LIG1       -0.1900
     23 H          16.8018  -33.4429   -8.9149 H       1  LIG1        0.1500
     24 H          16.3672  -31.6421  -10.5074 H       1  LIG1        0.1500
     25 H          14.9359  -32.0238  -12.4602 H       1  LIG1        0.1500
     26 H          13.9193  -34.2437  -12.8165 H       1  LIG1        0.1500
     27 H          14.9576  -36.3792   -8.5618 H       1  LIG1        0.0800
     28 H          16.5653  -35.6690   -8.1868 H       1  LIG1        0.0800
     29 H          15.5575  -38.5073   -8.6034 H       1  LIG1        0.3700
     30 H          18.6043  -39.5751   -9.0707 H       1  LIG1        0.1500
     31 H          17.8404  -42.8621  -11.6952 H       1  LIG1        0.1500
     32 H          15.5996  -41.9698  -12.1594 H       1  LIG1        0.1500
     33 H          14.8523  -39.8994  -11.0768 H       1  LIG1        0.1500
     34 H          19.1494  -43.6937   -9.3631 H       1  LIG1        0.1500
@<TRIPOS>BOND
     1     1     2   ar
     2     1     6   ar
     3     1    22    1
     4     2     3   ar
     5     2     7    1
     6     3     4   ar
     7     3    23    1
     8     4     5   ar
     9     4    24    1
    10     5     6   ar
    11     5    25    1
    12     6    26    1
    13     7     8    1
    14     7    27    1
    15     7    28    1
    16     8     9   am
    17     8    10    2
    18     9    11    1
    19     9    29    1
    20    11    12   ar
    21    11    16   ar
    22    12    13   ar
    23    12    30    1
    24    13    14   ar
    25    13    17    1
    26    14    15   ar
    27    14    31    1
    28    15    16   ar
    29    15    32    1
    30    16    33    1
    31    17    18   ar
    32    17    21   ar
    33    18    19   ar
    34    19    20   ar
    35    20    21   ar
    36    21    34    1
@<TRIPOS>SUBSTRUCTURE
     1 LIG1        1 TEMP              0 ****  ****    0 ROOT


##########                                Name:      Z28052960.****
##########                        Cluster_Size:                   1
##########                          Grid_Score:          -37.416458
##########                     Grid_vdw_energy:          -35.507339
##########                      Grid_es_energy:           -1.909118
##########           Internal_energy_repulsive:            4.904996

@<TRIPOS>MOLECULE
Z28052960.****
 34 36 1 0 0
SMALL
USER_CHARGES
****

@<TRIPOS>ATOM
      1 C          17.7420  -36.4407  -15.6717 C.ar    1  LIG1        0.1900
      2 C          17.4973  -37.6037  -14.9421 C.ar    1  LIG1       -0.1440
      3 C          16.6114  -38.5377  -15.4818 C.ar    1  LIG1       -0.1500
      4 C          15.9885  -38.2941  -16.7070 C.ar    1  LIG1       -0.1500
      5 C          16.2444  -37.1172  -17.4100 C.ar    1  LIG1       -0.1500
      6 C          17.1304  -36.1795  -16.8909 C.ar    1  LIG1       -0.1500
      7 C          18.1786  -37.8728  -13.6074 C.3     1  LIG1        0.0440
      8 C          17.8418  -36.7085  -12.7013 C.2     1  LIG1        0.5690
      9 N          16.5339  -36.5857  -12.3020 N.am    1  LIG1       -0.5470
     10 O          18.6749  -35.8940  -12.3590 O.2     1  LIG1       -0.5700
     11 C          15.9911  -35.5867  -11.4638 C.ar    1  LIG1        0.1170
     12 C          16.2308  -34.2295  -11.6889 C.ar    1  LIG1       -0.1500
     13 C          15.6600  -33.3068  -10.8158 C.ar    1  LIG1       -0.0230
     14 C          14.8802  -33.7048   -9.7249 C.ar    1  LIG1       -0.1500
     15 C          14.6649  -35.0642   -9.5120 C.ar    1  LIG1       -0.1500
     16 C          15.2180  -36.0064  -10.3782 C.ar    1  LIG1       -0.1500
     17 N          15.8774  -31.9074  -11.0487 N.ar    1  LIG1        0.5930
     18 N          17.0680  -31.3353  -11.1252 N.ar    1  LIG1       -0.4180
     19 N          16.8271  -30.0710  -11.3266 N.ar    1  LIG1        0.0000
     20 N          15.4843  -29.8438  -11.3805 N.ar    1  LIG1       -0.3380
     21 C          14.9374  -30.9890  -11.2091 C.ar    1  LIG1        0.0360
     22 F          18.6215  -35.5207  -15.1906 F       1  LIG1       -0.1900
     23 H          16.4094  -39.4419  -14.9638 H       1  LIG1        0.1500
     24 H          15.3167  -39.0105  -17.1056 H       1  LIG1        0.1500
     25 H          15.7654  -36.9405  -18.3391 H       1  LIG1        0.1500
     26 H          17.3401  -35.2819  -17.4132 H       1  LIG1        0.1500
     27 H          19.2502  -37.8992  -13.7454 H       1  LIG1        0.0800
     28 H          17.7948  -38.7846  -13.1732 H       1  LIG1        0.0800
     29 H          15.8751  -37.2514  -12.7297 H       1  LIG1        0.3700
     30 H          16.8323  -33.9089  -12.5012 H       1  LIG1        0.1500
     31 H          14.4628  -32.9886   -9.0640 H       1  LIG1        0.1500
     32 H          14.0774  -35.3852   -8.6888 H       1  LIG1        0.1500
     33 H          15.0486  -37.0404  -10.2166 H       1  LIG1        0.1500
     34 H          13.9113  -31.2470  -11.1869 H       1  LIG1        0.1500
@<TRIPOS>BOND
     1     1     2   ar
     2     1     6   ar
     3     1    22    1
     4     2     3   ar
     5     2     7    1
     6     3     4   ar
     7     3    23    1
     8     4     5   ar
     9     4    24    1
    10     5     6   ar
    11     5    25    1
    12     6    26    1
    13     7     8    1
    14     7    27    1
    15     7    28    1
    16     8     9   am
    17     8    10    2
    18     9    11    1
    19     9    29    1
    20    11    12   ar
    21    11    16   ar
    22    12    13   ar
    23    12    30    1
    24    13    14   ar
    25    13    17    1
    26    14    15   ar
    27    14    31    1
    28    15    16   ar
    29    15    32    1
    30    16    33    1
    31    17    18   ar
    32    17    21   ar
    33    18    19   ar
    34    19    20   ar
    35    20    21   ar
    36    21    34    1
@<TRIPOS>SUBSTRUCTURE
     1 LIG1        1 TEMP              0 ****  ****    0 ROOT


##########                                Name:     Z279577954.****
##########                        Cluster_Size:                   3
##########                          Grid_Score:          -34.269386
##########                     Grid_vdw_energy:          -29.632595
##########                      Grid_es_energy:           -4.636792
##########           Internal_energy_repulsive:            2.847200

@<TRIPOS>MOLECULE
Z279577954.****
 33 34 1 0 0
SMALL
USER_CHARGES
****

@<TRIPOS>ATOM
      1 C          18.5410  -40.6265   -9.3045 C.ar    1  LIG1        0.1900
      2 C          19.3452  -39.5316   -9.0149 C.ar    1  LIG1       -0.1500
      3 C          18.8216  -38.2496   -9.1661 C.ar    1  LIG1       -0.1500
      4 C          17.4958  -38.0949   -9.5936 C.ar    1  LIG1        0.1170
      5 C          16.6895  -39.1949   -9.8937 C.ar    1  LIG1       -0.1500
      6 C          17.2226  -40.4791   -9.7555 C.ar    1  LIG1        0.1170
      7 N          16.4796  -41.6678  -10.0297 N.am    1  LIG1       -0.5470
      8 C          15.5868  -41.9112  -11.0382 C.2     1  LIG1        0.5690
      9 C          14.9657  -43.2804  -11.0522 C.3     1  LIG1       -0.1790
     10 O          15.3318  -41.0781  -11.8768 O.2     1  LIG1       -0.5700
     11 F          19.0573  -41.8663   -9.1423 F       1  LIG1       -0.1900
     12 N          16.9393  -36.8094   -9.7527 N.am    1  LIG1       -0.5470
     13 C          17.0572  -35.9733  -10.8310 C.2     1  LIG1        0.5440
     14 C          16.4281  -34.6486  -10.8821 C.ar    1  LIG1        0.0860
     15 O          17.7287  -36.4321  -11.7410 O.2     1  LIG1       -0.5700
     16 C          15.8429  -34.2035  -12.0757 C.ar    1  LIG1       -0.1500
     17 C          15.2508  -32.9480  -12.1502 C.ar    1  LIG1       -0.1500
     18 C          15.2266  -32.1215  -11.0303 C.ar    1  LIG1       -0.1500
     19 C          15.7902  -32.5550   -9.8339 C.ar    1  LIG1       -0.1500
     20 C          16.3817  -33.8105   -9.7572 C.ar    1  LIG1       -0.1500
     21 H          20.3421  -39.6748   -8.6843 H       1  LIG1        0.1500
     22 H          19.4229  -37.4007   -8.9651 H       1  LIG1        0.1500
     23 H          15.6910  -39.0431  -10.2075 H       1  LIG1        0.1500
     24 H          16.6947  -42.4729   -9.4269 H       1  LIG1        0.3700
     25 H          15.7690  -43.9927  -11.1691 H       1  LIG1        0.0800
     26 H          14.4537  -43.4080  -10.1101 H       1  LIG1        0.0800
     27 H          14.2801  -43.3092  -11.8878 H       1  LIG1        0.0800
     28 H          16.3414  -36.4335   -9.0034 H       1  LIG1        0.3700
     29 H          15.8526  -34.8353  -12.9276 H       1  LIG1        0.1500
     30 H          14.8134  -32.6207  -13.0599 H       1  LIG1        0.1500
     31 H          14.7753  -31.1633  -11.0877 H       1  LIG1        0.1500
     32 H          15.7646  -31.9271   -8.9791 H       1  LIG1        0.1500
     33 H          16.7995  -34.1372   -8.8399 H       1  LIG1        0.1500
@<TRIPOS>BOND
     1     1     2   ar
     2     1     6   ar
     3     1    11    1
     4     2     3   ar
     5     2    21    1
     6     3     4   ar
     7     3    22    1
     8     4     5   ar
     9     4    12    1
    10     5     6   ar
    11     5    23    1
    12     6     7    1
    13     7     8   am
    14     7    24    1
    15     8     9    1
    16     8    10    2
    17     9    25    1
    18     9    26    1
    19     9    27    1
    20    12    13   am
    21    12    28    1
    22    13    14    1
    23    13    15    2
    24    14    16   ar
    25    14    20   ar
    26    16    17   ar
    27    16    29    1
    28    17    18   ar
    29    17    30    1
    30    18    19   ar
    31    18    31    1
    32    19    20   ar
    33    19    32    1
    34    20    33    1
@<TRIPOS>SUBSTRUCTURE
     1 LIG1        1 TEMP              0 ****  ****    0 ROOT


##########                                Name:     Z279577954.****
##########                        Cluster_Size:                   4
##########                          Grid_Score:          -32.861347
##########                     Grid_vdw_energy:          -30.489883
##########                      Grid_es_energy:           -2.371463
##########           Internal_energy_repulsive:            7.339101

@<TRIPOS>MOLECULE
Z279577954.****
 33 34 1 0 0
SMALL
USER_CHARGES
****

@<TRIPOS>ATOM
      1 C          13.6717  -39.3908  -12.2076 C.ar    1  LIG1        0.1900
      2 C          12.8503  -38.3188  -12.5327 C.ar    1  LIG1       -0.1500
      3 C          13.2189  -37.0380  -12.1279 C.ar    1  LIG1       -0.1500
      4 C          14.4123  -36.8593  -11.4152 C.ar    1  LIG1        0.1170
      5 C          15.2342  -37.9375  -11.0800 C.ar    1  LIG1       -0.1500
      6 C          14.8539  -39.2230  -11.4744 C.ar    1  LIG1        0.1170
      7 N          15.6269  -40.3895  -11.1880 N.am    1  LIG1       -0.5470
      8 C          16.7511  -40.5088  -10.4164 C.2     1  LIG1        0.5690
      9 C          17.3354  -41.8902  -10.3124 C.3     1  LIG1       -0.1790
     10 O          17.2299  -39.5603   -9.8390 O.2     1  LIG1       -0.5700
     11 F          13.3088  -40.6282  -12.6166 F       1  LIG1       -0.1900
     12 N          14.8111  -35.5739  -10.9954 N.am    1  LIG1       -0.5470
     13 C          15.2191  -34.5264  -11.7776 C.2     1  LIG1        0.5440
     14 C          15.6128  -33.2262  -11.2228 C.ar    1  LIG1        0.0860
     15 O          15.2222  -34.7740  -12.9727 O.2     1  LIG1       -0.5700
     16 C          16.2993  -33.1716  -10.0017 C.ar    1  LIG1       -0.1500
     17 C          16.6726  -31.9507   -9.4520 C.ar    1  LIG1       -0.1500
     18 C          16.3735  -30.7658  -10.1186 C.ar    1  LIG1       -0.1500
     19 C          15.7056  -30.8041  -11.3390 C.ar    1  LIG1       -0.1500
     20 C          15.3324  -32.0242  -11.8908 C.ar    1  LIG1       -0.1500
     21 H          11.9571  -38.4786  -13.0807 H       1  LIG1        0.1500
     22 H          12.5989  -36.2085  -12.3524 H       1  LIG1        0.1500
     23 H          16.1315  -37.7671  -10.5470 H       1  LIG1        0.1500
     24 H          15.2492  -41.2721  -11.5570 H       1  LIG1        0.3700
     25 H          16.5820  -42.5211   -9.8643 H       1  LIG1        0.0800
     26 H          17.5784  -42.2101  -11.3148 H       1  LIG1        0.0800
     27 H          18.2170  -41.8159   -9.6910 H       1  LIG1        0.0800
     28 H          14.7745  -35.3484   -9.9914 H       1  LIG1        0.3700
     29 H          16.5358  -34.0738   -9.4965 H       1  LIG1        0.1500
     30 H          17.1895  -31.9216   -8.5257 H       1  LIG1        0.1500
     31 H          16.6581  -29.8343   -9.6985 H       1  LIG1        0.1500
     32 H          15.4847  -29.9008  -11.8497 H       1  LIG1        0.1500
     33 H          14.8333  -32.0453  -12.8252 H       1  LIG1        0.1500
@<TRIPOS>BOND
     1     1     2   ar
     2     1     6   ar
     3     1    11    1
     4     2     3   ar
     5     2    21    1
     6     3     4   ar
     7     3    22    1
     8     4     5   ar
     9     4    12    1
    10     5     6   ar
    11     5    23    1
    12     6     7    1
    13     7     8   am
    14     7    24    1
    15     8     9    1
    16     8    10    2
    17     9    25    1
    18     9    26    1
    19     9    27    1
    20    12    13   am
    21    12    28    1
    22    13    14    1
    23    13    15    2
    24    14    16   ar
    25    14    20   ar
    26    16    17   ar
    27    16    29    1
    28    17    18   ar
    29    17    30    1
    30    18    19   ar
    31    18    31    1
    32    19    20   ar
    33    19    32    1
    34    20    33    1
@<TRIPOS>SUBSTRUCTURE
     1 LIG1        1 TEMP              0 ****  ****    0 ROOT


##########                                Name:     Z279577954.****
##########                        Cluster_Size:                   1
##########                          Grid_Score:          -32.776478
##########                     Grid_vdw_energy:          -30.215374
##########                      Grid_es_energy:           -2.561105
##########           Internal_energy_repulsive:            6.351973

@<TRIPOS>MOLECULE
Z279577954.****
 33 34 1 0 0
SMALL
USER_CHARGES
****

@<TRIPOS>ATOM
      1 C          13.5333  -39.2935  -12.6028 C.ar    1  LIG1        0.1900
      2 C          14.6156  -39.3097  -11.7322 C.ar    1  LIG1       -0.1500
      3 C          15.0987  -38.1028  -11.2320 C.ar    1  LIG1       -0.1500
      4 C          14.4757  -36.9047  -11.6075 C.ar    1  LIG1        0.1170
      5 C          13.3932  -36.8868  -12.4897 C.ar    1  LIG1       -0.1500
      6 C          12.9207  -38.0981  -13.0016 C.ar    1  LIG1        0.1170
      7 N          11.8167  -38.1883  -13.9034 N.am    1  LIG1       -0.5470
      8 C          10.4877  -37.9685  -13.6614 C.2     1  LIG1        0.5690
      9 C           9.5656  -38.1479  -14.8354 C.3     1  LIG1       -0.1790
     10 O          10.0869  -37.6308  -12.5716 O.2     1  LIG1       -0.5700
     11 F          13.0661  -40.4730  -13.0723 F       1  LIG1       -0.1900
     12 N          14.9419  -35.6691  -11.1144 N.am    1  LIG1       -0.5470
     13 C          15.1574  -34.5140  -11.8181 C.2     1  LIG1        0.5440
     14 C          15.6481  -33.2813  -11.1913 C.ar    1  LIG1        0.0860
     15 O          14.9021  -34.6054  -13.0081 O.2     1  LIG1       -0.5700
     16 C          16.1058  -33.3106   -9.8666 C.ar    1  LIG1       -0.1500
     17 C          16.5650  -32.1530   -9.2491 C.ar    1  LIG1       -0.1500
     18 C          16.5823  -30.9498   -9.9490 C.ar    1  LIG1       -0.1500
     19 C          16.1450  -30.9073  -11.2696 C.ar    1  LIG1       -0.1500
     20 C          15.6865  -32.0641  -11.8891 C.ar    1  LIG1       -0.1500
     21 H          15.0640  -40.2296  -11.4561 H       1  LIG1        0.1500
     22 H          15.9327  -38.0917  -10.5787 H       1  LIG1        0.1500
     23 H          12.9419  -35.9658  -12.7474 H       1  LIG1        0.1500
     24 H          12.0611  -38.3790  -14.8842 H       1  LIG1        0.3700
     25 H           9.8669  -37.4346  -15.5882 H       1  LIG1        0.0800
     26 H           9.6823  -39.1646  -15.1802 H       1  LIG1        0.0800
     27 H           8.5616  -37.9575  -14.4822 H       1  LIG1        0.0800
     28 H          15.1231  -35.5763  -10.1051 H       1  LIG1        0.3700
     29 H          16.1016  -34.2282   -9.3344 H       1  LIG1        0.1500
     30 H          16.9066  -32.1869   -8.2450 H       1  LIG1        0.1500
     31 H          16.9322  -30.0665   -9.4773 H       1  LIG1        0.1500
     32 H          16.1655  -29.9912  -11.8043 H       1  LIG1        0.1500
     33 H          15.3649  -32.0254  -12.8979 H       1  LIG1        0.1500
@<TRIPOS>BOND
     1     1     2   ar
     2     1     6   ar
     3     1    11    1
     4     2     3   ar
     5     2    21    1
     6     3     4   ar
     7     3    22    1
     8     4     5   ar
     9     4    12    1
    10     5     6   ar
    11     5    23    1
    12     6     7    1
    13     7     8   am
    14     7    24    1
    15     8     9    1
    16     8    10    2
    17     9    25    1
    18     9    26    1
    19     9    27    1
    20    12    13   am
    21    12    28    1
    22    13    14    1
    23    13    15    2
    24    14    16   ar
    25    14    20   ar
    26    16    17   ar
    27    16    29    1
    28    17    18   ar
    29    17    30    1
    30    18    19   ar
    31    18    31    1
    32    19    20   ar
    33    19    32    1
    34    20    33    1
@<TRIPOS>SUBSTRUCTURE
     1 LIG1        1 TEMP              0 ****  ****    0 ROOT


##########                                Name:     Z279577954.****
##########                        Cluster_Size:                   2
##########                          Grid_Score:          -31.727461
##########                     Grid_vdw_energy:          -25.933157
##########                      Grid_es_energy:           -5.794304
##########           Internal_energy_repulsive:            3.115052

@<TRIPOS>MOLECULE
Z279577954.****
 33 34 1 0 0
SMALL
USER_CHARGES
****

@<TRIPOS>ATOM
      1 C          14.7471  -33.4128  -11.3713 C.ar    1  LIG1        0.1900
      2 C          14.2469  -34.5733  -11.9482 C.ar    1  LIG1       -0.1500
      3 C          14.8050  -35.7992  -11.5934 C.ar    1  LIG1       -0.1500
      4 C          15.8467  -35.8346  -10.6563 C.ar    1  LIG1        0.1170
      5 C          16.3563  -34.6678  -10.0827 C.ar    1  LIG1       -0.1500
      6 C          15.8044  -33.4384  -10.4522 C.ar    1  LIG1        0.1170
      7 N          16.2488  -32.1900   -9.9190 N.am    1  LIG1       -0.5470
      8 C          17.0082  -31.2205  -10.5163 C.2     1  LIG1        0.5690
      9 C          17.3082  -30.0088   -9.6783 C.3     1  LIG1       -0.1790
     10 O          17.3952  -31.3285  -11.6569 O.2     1  LIG1       -0.5700
     11 F          14.1888  -32.2296  -11.7152 F       1  LIG1       -0.1900
     12 N          16.4283  -37.0615  -10.2770 N.am    1  LIG1       -0.5470
     13 C          17.0315  -37.9879  -11.0854 C.2     1  LIG1        0.5440
     14 C          17.6048  -39.2374  -10.5723 C.ar    1  LIG1        0.0860
     15 O          17.0492  -37.6771  -12.2655 O.2     1  LIG1       -0.5700
     16 C          17.4676  -40.4198  -11.3129 C.ar    1  LIG1       -0.1500
     17 C          17.9933  -41.6171  -10.8412 C.ar    1  LIG1       -0.1500
     18 C          18.6721  -41.6494   -9.6263 C.ar    1  LIG1       -0.1500
     19 C          18.8296  -40.4811   -8.8865 C.ar    1  LIG1       -0.1500
     20 C          18.3055  -39.2827   -9.3571 C.ar    1  LIG1       -0.1500
     21 H          13.4522  -34.5211  -12.6477 H       1  LIG1        0.1500
     22 H          14.4485  -36.6949  -12.0330 H       1  LIG1        0.1500
     23 H          17.1385  -34.7303   -9.3737 H       1  LIG1        0.1500
     24 H          15.8938  -31.9576   -8.9820 H       1  LIG1        0.3700
     25 H          16.3617  -29.5527   -9.4286 H       1  LIG1        0.0800
     26 H          17.8303  -30.3516   -8.7973 H       1  LIG1        0.0800
     27 H          17.9232  -29.3525  -10.2783 H       1  LIG1        0.0800
     28 H          16.4489  -37.3108   -9.2782 H       1  LIG1        0.3700
     29 H          16.9583  -40.3955  -12.2430 H       1  LIG1        0.1500
     30 H          17.8809  -42.5063  -11.4092 H       1  LIG1        0.1500
     31 H          19.0725  -42.5633   -9.2664 H       1  LIG1        0.1500
     32 H          19.3534  -40.5057   -7.9643 H       1  LIG1        0.1500
     33 H          18.4385  -38.3958   -8.7928 H       1  LIG1        0.1500
@<TRIPOS>BOND
     1     1     2   ar
     2     1     6   ar
     3     1    11    1
     4     2     3   ar
     5     2    21    1
     6     3     4   ar
     7     3    22    1
     8     4     5   ar
     9     4    12    1
    10     5     6   ar
    11     5    23    1
    12     6     7    1
    13     7     8   am
    14     7    24    1
    15     8     9    1
    16     8    10    2
    17     9    25    1
    18     9    26    1
    19     9    27    1
    20    12    13   am
    21    12    28    1
    22    13    14    1
    23    13    15    2
    24    14    16   ar
    25    14    20   ar
    26    16    17   ar
    27    16    29    1
    28    17    18   ar
    29    17    30    1
    30    18    19   ar
    31    18    31    1
    32    19    20   ar
    33    19    32    1
    34    20    33    1
@<TRIPOS>SUBSTRUCTURE
     1 LIG1        1 TEMP              0 ****  ****    0 ROOT


##########                                Name:     Z297324774.****
##########                        Cluster_Size:                   7
##########                          Grid_Score:          -39.166870
##########                     Grid_vdw_energy:          -31.463181
##########                      Grid_es_energy:           -7.703688
##########           Internal_energy_repulsive:            3.603144

@<TRIPOS>MOLECULE
Z297324774.****
 36 37 1 0 0
SMALL
USER_CHARGES
****

@<TRIPOS>ATOM
      1 C          18.8896  -40.9554  -10.2478 C.ar    1  LIG1       -0.1500
      2 C          19.1052  -41.8853  -11.2564 C.ar    1  LIG1        0.1900
      3 C          19.9932  -41.6564  -12.2981 C.ar    1  LIG1       -0.1500
      4 C          20.6932  -40.4537  -12.3257 C.ar    1  LIG1       -0.1500
      5 C          20.4943  -39.5072  -11.3192 C.ar    1  LIG1       -0.1500
      6 C          19.5930  -39.7497  -10.2764 C.ar    1  LIG1       -0.1440
      7 F          18.4272  -43.0559  -11.2234 F       1  LIG1       -0.1900
      8 C          19.3744  -38.7102   -9.1867 C.3     1  LIG1        0.0440
      9 C          18.6614  -37.5239   -9.8049 C.2     1  LIG1        0.5690
     10 N          17.4835  -37.1239   -9.2268 N.am    1  LIG1       -0.5470
     11 O          19.0857  -36.9735  -10.7980 O.2     1  LIG1       -0.5700
     12 C          16.6370  -36.0485   -9.6193 C.ar    1  LIG1        0.1170
     13 C          15.4440  -36.3509  -10.2889 C.ar    1  LIG1        0.1900
     14 C          14.5686  -35.3567  -10.7112 C.ar    1  LIG1       -0.1500
     15 C          14.8820  -34.0242  -10.4495 C.ar    1  LIG1       -0.1500
     16 C          16.0610  -33.7166   -9.7596 C.ar    1  LIG1        0.1170
     17 C          16.9455  -34.7155   -9.3384 C.ar    1  LIG1       -0.1500
     18 F          15.1233  -37.6401  -10.5393 F       1  LIG1       -0.1900
     19 N          16.3431  -32.3521   -9.5225 N.am    1  LIG1       -0.5470
     20 C          16.7870  -31.4531  -10.4517 C.2     1  LIG1        0.5690
     21 C          17.0198  -30.0493   -9.9666 C.3     1  LIG1       -0.1790
     22 O          17.0041  -31.7893  -11.5936 O.2     1  LIG1       -0.5700
     23 H          18.1967  -41.1674   -9.4741 H       1  LIG1        0.1500
     24 H          20.1316  -42.3869  -13.0517 H       1  LIG1        0.1500
     25 H          21.3794  -40.2582  -13.1106 H       1  LIG1        0.1500
     26 H          21.0393  -38.5977  -11.3514 H       1  LIG1        0.1500
     27 H          20.3275  -38.3688   -8.8094 H       1  LIG1        0.0800
     28 H          18.7444  -39.1261   -8.4136 H       1  LIG1        0.0800
     29 H          17.1593  -37.6952   -8.4347 H       1  LIG1        0.3700
     30 H          13.6771  -35.6154  -11.2213 H       1  LIG1        0.1500
     31 H          14.2285  -33.2505  -10.7596 H       1  LIG1        0.1500
     32 H          17.8271  -34.4597   -8.8122 H       1  LIG1        0.1500
     33 H          16.2318  -32.0026   -8.5649 H       1  LIG1        0.3700
     34 H          17.3427  -29.4696  -10.8200 H       1  LIG1        0.0800
     35 H          16.0812  -29.6914   -9.5705 H       1  LIG1        0.0800
     36 H          17.7826  -30.0995   -9.2034 H       1  LIG1        0.0800
@<TRIPOS>BOND
     1     1     2   ar
     2     1     6   ar
     3     1    23    1
     4     2     3   ar
     5     2     7    1
     6     3     4   ar
     7     3    24    1
     8     4     5   ar
     9     4    25    1
    10     5     6   ar
    11     5    26    1
    12     6     8    1
    13     8     9    1
    14     8    27    1
    15     8    28    1
    16     9    10   am
    17     9    11    2
    18    10    12    1
    19    10    29    1
    20    12    13   ar
    21    12    17   ar
    22    13    14   ar
    23    13    18    1
    24    14    15   ar
    25    14    30    1
    26    15    16   ar
    27    15    31    1
    28    16    17   ar
    29    16    19    1
    30    17    32    1
    31    19    20   am
    32    19    33    1
    33    20    21    1
    34    20    22    2
    35    21    34    1
    36    21    35    1
    37    21    36    1
@<TRIPOS>SUBSTRUCTURE
     1 LIG1        1 TEMP              0 ****  ****    0 ROOT


##########                                Name:     Z297324774.****
##########                        Cluster_Size:                   1
##########                          Grid_Score:          -37.708839
##########                     Grid_vdw_energy:          -33.146091
##########                      Grid_es_energy:           -4.562747
##########           Internal_energy_repulsive:            3.470593

@<TRIPOS>MOLECULE
Z297324774.****
 36 37 1 0 0
SMALL
USER_CHARGES
****

@<TRIPOS>ATOM
      1 C          11.8496  -38.4095  -15.0130 C.ar    1  LIG1       -0.1500
      2 C          10.6189  -37.8994  -15.4048 C.ar    1  LIG1        0.1900
      3 C           9.5931  -37.6623  -14.5005 C.ar    1  LIG1       -0.1500
      4 C           9.8121  -37.9426  -13.1549 C.ar    1  LIG1       -0.1500
      5 C          11.0436  -38.4520  -12.7395 C.ar    1  LIG1       -0.1500
      6 C          12.0681  -38.6895  -13.6628 C.ar    1  LIG1       -0.1440
      7 F          10.4113  -37.6227  -16.7130 F       1  LIG1       -0.1900
      8 C          13.4055  -39.2530  -13.2048 C.3     1  LIG1        0.0440
      9 C          14.2494  -38.1027  -12.6924 C.2     1  LIG1        0.5690
     10 N          14.5462  -38.0850  -11.3533 N.am    1  LIG1       -0.5470
     11 O          14.6138  -37.2063  -13.4225 O.2     1  LIG1       -0.5700
     12 C          15.3139  -37.1214  -10.6397 C.ar    1  LIG1        0.1170
     13 C          16.3165  -37.5778   -9.7741 C.ar    1  LIG1        0.1900
     14 C          17.1033  -36.7001   -9.0367 C.ar    1  LIG1       -0.1500
     15 C          16.8956  -35.3287   -9.1728 C.ar    1  LIG1       -0.1500
     16 C          15.9112  -34.8653  -10.0542 C.ar    1  LIG1        0.1170
     17 C          15.1153  -35.7474  -10.7931 C.ar    1  LIG1       -0.1500
     18 F          16.5351  -38.9053   -9.6413 F       1  LIG1       -0.1900
     19 N          15.7294  -33.4673  -10.1552 N.am    1  LIG1       -0.5470
     20 C          15.8324  -32.7272  -11.2998 C.2     1  LIG1        0.5690
     21 C          15.5960  -31.2488  -11.1642 C.3     1  LIG1       -0.1790
     22 O          16.1269  -33.2431  -12.3540 O.2     1  LIG1       -0.5700
     23 H          12.6037  -38.5826  -15.7377 H       1  LIG1        0.1500
     24 H           8.6664  -37.2743  -14.8344 H       1  LIG1        0.1500
     25 H           9.0435  -37.7665  -12.4453 H       1  LIG1        0.1500
     26 H          11.1967  -38.6554  -11.7098 H       1  LIG1        0.1500
     27 H          13.9212  -39.6997  -14.0425 H       1  LIG1        0.0800
     28 H          13.2443  -39.9494  -12.3946 H       1  LIG1        0.0800
     29 H          14.1325  -38.8441  -10.7951 H       1  LIG1        0.3700
     30 H          17.8495  -37.0748   -8.3851 H       1  LIG1        0.1500
     31 H          17.4850  -34.6417   -8.6229 H       1  LIG1        0.1500
     32 H          14.3822  -35.3739  -11.4586 H       1  LIG1        0.1500
     33 H          15.5269  -32.9503   -9.2931 H       1  LIG1        0.3700
     34 H          15.6920  -30.8215  -12.1525 H       1  LIG1        0.0800
     35 H          14.5995  -31.1225  -10.7677 H       1  LIG1        0.0800
     36 H          16.3466  -30.8679  -10.4873 H       1  LIG1        0.0800
@<TRIPOS>BOND
     1     1     2   ar
     2     1     6   ar
     3     1    23    1
     4     2     3   ar
     5     2     7    1
     6     3     4   ar
     7     3    24    1
     8     4     5   ar
     9     4    25    1
    10     5     6   ar
    11     5    26    1
    12     6     8    1
    13     8     9    1
    14     8    27    1
    15     8    28    1
    16     9    10   am
    17     9    11    2
    18    10    12    1
    19    10    29    1
    20    12    13   ar
    21    12    17   ar
    22    13    14   ar
    23    13    18    1
    24    14    15   ar
    25    14    30    1
    26    15    16   ar
    27    15    31    1
    28    16    17   ar
    29    16    19    1
    30    17    32    1
    31    19    20   am
    32    19    33    1
    33    20    21    1
    34    20    22    2
    35    21    34    1
    36    21    35    1
    37    21    36    1
@<TRIPOS>SUBSTRUCTURE
     1 LIG1        1 TEMP              0 ****  ****    0 ROOT


##########                                Name:     Z297324774.****
##########                        Cluster_Size:                   1
##########                          Grid_Score:          -37.224449
##########                     Grid_vdw_energy:          -29.849094
##########                      Grid_es_energy:           -7.375357
##########           Internal_energy_repulsive:            6.251773

@<TRIPOS>MOLECULE
Z297324774.****
 36 37 1 0 0
SMALL
USER_CHARGES
****

@<TRIPOS>ATOM
      1 C          16.4053  -38.2771  -17.0998 C.ar    1  LIG1       -0.1500
      2 C          16.4754  -39.6560  -16.9519 C.ar    1  LIG1        0.1900
      3 C          17.1774  -40.2556  -15.9156 C.ar    1  LIG1       -0.1500
      4 C          17.8279  -39.4421  -14.9924 C.ar    1  LIG1       -0.1500
      5 C          17.7665  -38.0534  -15.1206 C.ar    1  LIG1       -0.1500
      6 C          17.0577  -37.4623  -16.1726 C.ar    1  LIG1       -0.1440
      7 F          15.8371  -40.4438  -17.8480 F       1  LIG1       -0.1900
      8 C          17.0016  -35.9479  -16.3116 C.3     1  LIG1        0.0440
      9 C          17.1041  -35.3445  -14.9248 C.2     1  LIG1        0.5690
     10 N          15.9371  -35.1652  -14.2265 N.am    1  LIG1       -0.5470
     11 O          18.1669  -34.9903  -14.4620 O.2     1  LIG1       -0.5700
     12 C          15.7733  -34.6234  -12.9201 C.ar    1  LIG1        0.1170
     13 C          15.0975  -33.4035  -12.7854 C.ar    1  LIG1        0.1900
     14 C          14.9041  -32.8061  -11.5449 C.ar    1  LIG1       -0.1500
     15 C          15.3856  -33.4457  -10.4041 C.ar    1  LIG1       -0.1500
     16 C          16.0409  -34.6767  -10.5295 C.ar    1  LIG1        0.1170
     17 C          16.2408  -35.2768  -11.7775 C.ar    1  LIG1       -0.1500
     18 F          14.6162  -32.7784  -13.8833 F       1  LIG1       -0.1900
     19 N          16.5196  -35.2862   -9.3475 N.am    1  LIG1       -0.5470
     20 C          17.7710  -35.8049   -9.1643 C.2     1  LIG1        0.5690
     21 C          18.0555  -36.4058   -7.8161 C.3     1  LIG1       -0.1790
     22 O          18.5872  -35.7997  -10.0576 O.2     1  LIG1       -0.5700
     23 H          15.8639  -37.8603  -17.9103 H       1  LIG1        0.1500
     24 H          17.2114  -41.3106  -15.8342 H       1  LIG1        0.1500
     25 H          18.3681  -39.8781  -14.1904 H       1  LIG1        0.1500
     26 H          18.2631  -37.4471  -14.4058 H       1  LIG1        0.1500
     27 H          16.0525  -35.6537  -16.7357 H       1  LIG1        0.0800
     28 H          17.8435  -35.6087  -16.8978 H       1  LIG1        0.0800
     29 H          15.0750  -35.4235  -14.7256 H       1  LIG1        0.3700
     30 H          14.3951  -31.8799  -11.4749 H       1  LIG1        0.1500
     31 H          15.2473  -33.0103   -9.4486 H       1  LIG1        0.1500
     32 H          16.7326  -36.2111  -11.8471 H       1  LIG1        0.1500
     33 H          15.8685  -35.3742   -8.5602 H       1  LIG1        0.3700
     34 H          19.0819  -36.7447   -7.8313 H       1  LIG1        0.0800
     35 H          17.9008  -35.6277   -7.0835 H       1  LIG1        0.0800
     36 H          17.3642  -37.2248   -7.6812 H       1  LIG1        0.0800
@<TRIPOS>BOND
     1     1     2   ar
     2     1     6   ar
     3     1    23    1
     4     2     3   ar
     5     2     7    1
     6     3     4   ar
     7     3    24    1
     8     4     5   ar
     9     4    25    1
    10     5     6   ar
    11     5    26    1
    12     6     8    1
    13     8     9    1
    14     8    27    1
    15     8    28    1
    16     9    10   am
    17     9    11    2
    18    10    12    1
    19    10    29    1
    20    12    13   ar
    21    12    17   ar
    22    13    14   ar
    23    13    18    1
    24    14    15   ar
    25    14    30    1
    26    15    16   ar
    27    15    31    1
    28    16    17   ar
    29    16    19    1
    30    17    32    1
    31    19    20   am
    32    19    33    1
    33    20    21    1
    34    20    22    2
    35    21    34    1
    36    21    35    1
    37    21    36    1
@<TRIPOS>SUBSTRUCTURE
     1 LIG1        1 TEMP              0 ****  ****    0 ROOT


##########                                Name:     Z297324774.****
##########                        Cluster_Size:                   1
##########                          Grid_Score:          -36.783684
##########                     Grid_vdw_energy:          -29.311132
##########                      Grid_es_energy:           -7.472552
##########           Internal_energy_repulsive:            2.957056

@<TRIPOS>MOLECULE
Z297324774.****
 36 37 1 0 0
SMALL
USER_CHARGES
****

@<TRIPOS>ATOM
      1 C          14.8893  -39.5258  -15.0104 C.ar    1  LIG1       -0.1500
      2 C          14.9729  -39.4857  -16.3959 C.ar    1  LIG1        0.1900
      3 C          15.6363  -40.4612  -17.1270 C.ar    1  LIG1       -0.1500
      4 C          16.2328  -41.5167  -16.4434 C.ar    1  LIG1       -0.1500
      5 C          16.1569  -41.5781  -15.0509 C.ar    1  LIG1       -0.1500
      6 C          15.4875  -40.5856  -14.3261 C.ar    1  LIG1       -0.1440
      7 F          14.3870  -38.4611  -17.0577 F       1  LIG1       -0.1900
      8 C          15.4155  -40.6538  -12.8075 C.3     1  LIG1        0.0440
      9 C          16.2743  -39.5381  -12.2457 C.2     1  LIG1        0.5690
     10 N          16.0902  -39.2020  -10.9285 N.am    1  LIG1       -0.5470
     11 O          17.0630  -38.9319  -12.9383 O.2     1  LIG1       -0.5700
     12 C          16.7676  -38.1992  -10.1784 C.ar    1  LIG1        0.1170
     13 C          17.9654  -38.5426   -9.5378 C.ar    1  LIG1        0.1900
     14 C          18.6813  -37.6221   -8.7807 C.ar    1  LIG1       -0.1500
     15 C          18.1992  -36.3195   -8.6669 C.ar    1  LIG1       -0.1500
     16 C          17.0152  -35.9635   -9.3242 C.ar    1  LIG1        0.1170
     17 C          16.2909  -36.8898  -10.0824 C.ar    1  LIG1       -0.1500
     18 F          18.4493  -39.8000   -9.6492 F       1  LIG1       -0.1900
     19 N          16.5588  -34.6341   -9.1754 N.am    1  LIG1       -0.5470
     20 C          16.4970  -33.6932  -10.1651 C.2     1  LIG1        0.5690
     21 C          15.9744  -32.3401   -9.7703 C.3     1  LIG1       -0.1790
     22 O          16.8730  -33.9411  -11.2882 O.2     1  LIG1       -0.5700
     23 H          14.3788  -38.7561  -14.4902 H       1  LIG1        0.1500
     24 H          15.6821  -40.3981  -18.1828 H       1  LIG1        0.1500
     25 H          16.7428  -42.2754  -16.9815 H       1  LIG1        0.1500
     26 H          16.6120  -42.3918  -14.5449 H       1  LIG1        0.1500
     27 H          15.8208  -41.5943  -12.4633 H       1  LIG1        0.0800
     28 H          14.3953  -40.4972  -12.4880 H       1  LIG1        0.0800
     29 H          15.3471  -39.7169  -10.4369 H       1  LIG1        0.3700
     30 H          19.5806  -37.9126   -8.3022 H       1  LIG1        0.1500
     31 H          18.7295  -35.6010   -8.0974 H       1  LIG1        0.1500
     32 H          15.4024  -36.5961  -10.5763 H       1  LIG1        0.1500
     33 H          16.2699  -34.3322   -8.2389 H       1  LIG1        0.3700
     34 H          15.9700  -31.7303  -10.6628 H       1  LIG1        0.0800
     35 H          14.9784  -32.4869   -9.3799 H       1  LIG1        0.0800
     36 H          16.6442  -31.9478   -9.0191 H       1  LIG1        0.0800
@<TRIPOS>BOND
     1     1     2   ar
     2     1     6   ar
     3     1    23    1
     4     2     3   ar
     5     2     7    1
     6     3     4   ar
     7     3    24    1
     8     4     5   ar
     9     4    25    1
    10     5     6   ar
    11     5    26    1
    12     6     8    1
    13     8     9    1
    14     8    27    1
    15     8    28    1
    16     9    10   am
    17     9    11    2
    18    10    12    1
    19    10    29    1
    20    12    13   ar
    21    12    17   ar
    22    13    14   ar
    23    13    18    1
    24    14    15   ar
    25    14    30    1
    26    15    16   ar
    27    15    31    1
    28    16    17   ar
    29    16    19    1
    30    17    32    1
    31    19    20   am
    32    19    33    1
    33    20    21    1
    34    20    22    2
    35    21    34    1
    36    21    35    1
    37    21    36    1
@<TRIPOS>SUBSTRUCTURE
     1 LIG1        1 TEMP              0 ****  ****    0 ROOT


##########                                Name:     Z297320586.****
##########                        Cluster_Size:                   7
##########                          Grid_Score:          -33.355408
##########                     Grid_vdw_energy:          -27.303320
##########                      Grid_es_energy:           -6.052086
##########           Internal_energy_repulsive:            2.791630

@<TRIPOS>MOLECULE
Z297320586.****
 33 34 1 0 0
SMALL
USER_CHARGES
****

@<TRIPOS>ATOM
      1 C          20.8514  -40.5412  -10.3998 C.ar    1  LIG1        0.1900
      2 C          20.3553  -41.3867   -9.4162 C.ar    1  LIG1       -0.1500
      3 C          19.1011  -41.1183   -8.8750 C.ar    1  LIG1       -0.1500
      4 C          18.3725  -40.0149   -9.3189 C.ar    1  LIG1       -0.1500
      5 C          18.8886  -39.1531  -10.3086 C.ar    1  LIG1        0.0860
      6 C          20.1465  -39.4386  -10.8565 C.ar    1  LIG1       -0.1500
      7 F          22.0668  -40.8040  -10.9295 F       1  LIG1       -0.1900
      8 C          18.1426  -37.9814  -10.7760 C.2     1  LIG1        0.5440
      9 O          18.4779  -37.3267  -11.7543 O.2     1  LIG1       -0.5700
     10 N          17.0427  -37.5733  -10.0505 N.am    1  LIG1       -0.5470
     11 C          16.1905  -36.4695  -10.3328 C.ar    1  LIG1        0.1170
     12 C          14.9758  -36.7064  -10.9884 C.ar    1  LIG1        0.1900
     13 C          14.0968  -35.6751  -11.2955 C.ar    1  LIG1       -0.1500
     14 C          14.4406  -34.3683  -10.9527 C.ar    1  LIG1       -0.1500
     15 C          15.6649  -34.1227  -10.3192 C.ar    1  LIG1        0.1170
     16 C          16.5462  -35.1609  -10.0010 C.ar    1  LIG1       -0.1500
     17 F          14.6400  -37.9681  -11.3418 F       1  LIG1       -0.1900
     18 N          15.9735  -32.7842   -9.9846 N.am    1  LIG1       -0.5470
     19 C          16.7491  -31.9350  -10.7233 C.2     1  LIG1        0.5690
     20 O          17.2276  -32.2830  -11.7806 O.2     1  LIG1       -0.5700
     21 C          16.9408  -30.5508  -10.1684 C.3     1  LIG1       -0.1790
     22 H          20.9239  -42.2198   -9.0923 H       1  LIG1        0.1500
     23 H          18.6988  -41.7564   -8.1295 H       1  LIG1        0.1500
     24 H          17.4109  -39.8367   -8.9102 H       1  LIG1        0.1500
     25 H          20.5581  -38.8182  -11.6117 H       1  LIG1        0.1500
     26 H          16.8942  -38.0477   -9.1512 H       1  LIG1        0.3700
     27 H          13.1812  -35.8845  -11.7863 H       1  LIG1        0.1500
     28 H          13.7882  -33.5661  -11.1805 H       1  LIG1        0.1500
     29 H          17.4667  -34.9548   -9.5214 H       1  LIG1        0.1500
     30 H          15.5644  -32.4008   -9.1265 H       1  LIG1        0.3700
     31 H          17.5889  -30.0229  -10.8531 H       1  LIG1        0.0800
     32 H          15.9637  -30.0952  -10.1085 H       1  LIG1        0.0800
     33 H          17.3930  -30.6609   -9.1932 H       1  LIG1        0.0800
@<TRIPOS>BOND
     1     1     2   ar
     2     1     6   ar
     3     1     7    1
     4     2     3   ar
     5     2    22    1
     6     3     4   ar
     7     3    23    1
     8     4     5   ar
     9     4    24    1
    10     5     6   ar
    11     5     8    1
    12     6    25    1
    13     8     9    2
    14     8    10   am
    15    10    11    1
    16    10    26    1
    17    11    12   ar
    18    11    16   ar
    19    12    13   ar
    20    12    17    1
    21    13    14   ar
    22    13    27    1
    23    14    15   ar
    24    14    28    1
    25    15    16   ar
    26    15    18    1
    27    16    29    1
    28    18    19   am
    29    18    30    1
    30    19    20    2
    31    19    21    1
    32    21    31    1
    33    21    32    1
    34    21    33    1
@<TRIPOS>SUBSTRUCTURE
     1 LIG1        1 TEMP              0 ****  ****    0 ROOT


##########                                Name:     Z297320586.****
##########                        Cluster_Size:                   1
##########                          Grid_Score:          -31.225990
##########                     Grid_vdw_energy:          -28.568720
##########                      Grid_es_energy:           -2.657270
##########           Internal_energy_repulsive:            5.387456

@<TRIPOS>MOLECULE
Z297320586.****
 33 34 1 0 0
SMALL
USER_CHARGES
****

@<TRIPOS>ATOM
      1 C          15.7164  -32.9838  -10.5403 C.ar    1  LIG1        0.1900
      2 C          14.9364  -32.4486  -11.5569 C.ar    1  LIG1       -0.1500
      3 C          14.4434  -33.3016  -12.5402 C.ar    1  LIG1       -0.1500
      4 C          14.7406  -34.6636  -12.4938 C.ar    1  LIG1       -0.1500
      5 C          15.5445  -35.1978  -11.4657 C.ar    1  LIG1        0.0860
      6 C          16.0258  -34.3332  -10.4732 C.ar    1  LIG1       -0.1500
      7 F          16.1913  -32.1570   -9.5823 F       1  LIG1       -0.1900
      8 C          15.8783  -36.6237  -11.4099 C.2     1  LIG1        0.5440
      9 O          17.0081  -37.0503  -11.6094 O.2     1  LIG1       -0.5700
     10 N          14.8623  -37.5251  -11.1695 N.am    1  LIG1       -0.5470
     11 C          14.9754  -38.9405  -11.0777 C.ar    1  LIG1        0.1170
     12 C          13.9298  -39.7332  -11.5675 C.ar    1  LIG1        0.1900
     13 C          13.9743  -41.1206  -11.5089 C.ar    1  LIG1       -0.1500
     14 C          15.0844  -41.7386  -10.9351 C.ar    1  LIG1       -0.1500
     15 C          16.1214  -40.9504  -10.4214 C.ar    1  LIG1        0.1170
     16 C          16.0823  -39.5541  -10.4883 C.ar    1  LIG1       -0.1500
     17 F          12.8399  -39.1441  -12.1102 F       1  LIG1       -0.1900
     18 N          17.2310  -41.6162   -9.8518 N.am    1  LIG1       -0.5470
     19 C          18.5449  -41.3527  -10.1214 C.2     1  LIG1        0.5690
     20 O          18.8626  -40.4690  -10.8869 O.2     1  LIG1       -0.5700
     21 C          19.5582  -42.1919   -9.3937 C.3     1  LIG1       -0.1790
     22 H          14.7217  -31.4113  -11.5748 H       1  LIG1        0.1500
     23 H          13.8377  -32.9158  -13.3206 H       1  LIG1        0.1500
     24 H          14.3407  -35.3020  -13.2395 H       1  LIG1        0.1500
     25 H          16.6222  -34.7045   -9.6789 H       1  LIG1        0.1500
     26 H          13.9091  -37.1415  -11.1716 H       1  LIG1        0.3700
     27 H          13.1715  -41.6956  -11.8936 H       1  LIG1        0.1500
     28 H          15.1380  -42.7943  -10.8758 H       1  LIG1        0.1500
     29 H          16.8765  -38.9759  -10.0949 H       1  LIG1        0.1500
     30 H          17.0438  -42.3456   -9.1564 H       1  LIG1        0.3700
     31 H          20.5337  -41.8750   -9.7338 H       1  LIG1        0.0800
     32 H          19.4222  -42.0088   -8.3383 H       1  LIG1        0.0800
     33 H          19.3594  -43.2222   -9.6515 H       1  LIG1        0.0800
@<TRIPOS>BOND
     1     1     2   ar
     2     1     6   ar
     3     1     7    1
     4     2     3   ar
     5     2    22    1
     6     3     4   ar
     7     3    23    1
     8     4     5   ar
     9     4    24    1
    10     5     6   ar
    11     5     8    1
    12     6    25    1
    13     8     9    2
    14     8    10   am
    15    10    11    1
    16    10    26    1
    17    11    12   ar
    18    11    16   ar
    19    12    13   ar
    20    12    17    1
    21    13    14   ar
    22    13    27    1
    23    14    15   ar
    24    14    28    1
    25    15    16   ar
    26    15    18    1
    27    16    29    1
    28    18    19   am
    29    18    30    1
    30    19    20    2
    31    19    21    1
    32    21    31    1
    33    21    32    1
    34    21    33    1
@<TRIPOS>SUBSTRUCTURE
     1 LIG1        1 TEMP              0 ****  ****    0 ROOT


##########                                Name:     Z297320586.****
##########                        Cluster_Size:                   1
##########                          Grid_Score:          -30.134096
##########                     Grid_vdw_energy:          -26.980610
##########                      Grid_es_energy:           -3.153486
##########           Internal_energy_repulsive:            2.629087

@<TRIPOS>MOLECULE
Z297320586.****
 33 34 1 0 0
SMALL
USER_CHARGES
****

@<TRIPOS>ATOM
      1 C          16.0879  -30.7952  -11.1689 C.ar    1  LIG1        0.1900
      2 C          16.6104  -30.9251   -9.8888 C.ar    1  LIG1       -0.1500
      3 C          16.7737  -32.2025   -9.3603 C.ar    1  LIG1       -0.1500
      4 C          16.4095  -33.3193  -10.1125 C.ar    1  LIG1       -0.1500
      5 C          15.8670  -33.1790  -11.4066 C.ar    1  LIG1        0.0860
      6 C          15.7182  -31.8896  -11.9350 C.ar    1  LIG1       -0.1500
      7 F          15.9339  -29.5555  -11.6848 F       1  LIG1       -0.1900
      8 C          15.4658  -34.3409  -12.2046 C.2     1  LIG1        0.5440
      9 O          15.2802  -34.2853  -13.4132 O.2     1  LIG1       -0.5700
     10 N          15.2416  -35.5363  -11.5539 N.am    1  LIG1       -0.5470
     11 C          14.8486  -36.7716  -12.1404 C.ar    1  LIG1        0.1170
     12 C          15.8095  -37.7780  -12.2993 C.ar    1  LIG1        0.1900
     13 C          15.4947  -39.0074  -12.8649 C.ar    1  LIG1       -0.1500
     14 C          14.1898  -39.2392  -13.2973 C.ar    1  LIG1       -0.1500
     15 C          13.2309  -38.2276  -13.1635 C.ar    1  LIG1        0.1170
     16 C          13.5441  -36.9933  -12.5856 C.ar    1  LIG1       -0.1500
     17 F          17.0828  -37.5578  -11.8998 F       1  LIG1       -0.1900
     18 N          11.9185  -38.5046  -13.6104 N.am    1  LIG1       -0.5470
     19 C          11.4330  -38.2569  -14.8639 C.2     1  LIG1        0.5690
     20 O          12.1386  -37.7823  -15.7269 O.2     1  LIG1       -0.5700
     21 C           9.9995  -38.6364  -15.1129 C.3     1  LIG1       -0.1790
     22 H          16.8811  -30.0647   -9.3333 H       1  LIG1        0.1500
     23 H          17.1799  -32.3254   -8.3884 H       1  LIG1        0.1500
     24 H          16.5589  -34.2853   -9.7025 H       1  LIG1        0.1500
     25 H          15.3255  -31.7495  -12.9100 H       1  LIG1        0.1500
     26 H          15.2483  -35.4991  -10.5270 H       1  LIG1        0.3700
     27 H          16.2407  -39.7531  -12.9667 H       1  LIG1        0.1500
     28 H          13.9280  -40.1669  -13.7352 H       1  LIG1        0.1500
     29 H          12.8050  -36.2417  -12.4928 H       1  LIG1        0.1500
     30 H          11.2747  -38.9527  -12.9505 H       1  LIG1        0.3700
     31 H           9.7710  -38.3566  -16.1313 H       1  LIG1        0.0800
     32 H           9.9234  -39.7029  -14.9631 H       1  LIG1        0.0800
     33 H           9.3989  -38.0870  -14.4023 H       1  LIG1        0.0800
@<TRIPOS>BOND
     1     1     2   ar
     2     1     6   ar
     3     1     7    1
     4     2     3   ar
     5     2    22    1
     6     3     4   ar
     7     3    23    1
     8     4     5   ar
     9     4    24    1
    10     5     6   ar
    11     5     8    1
    12     6    25    1
    13     8     9    2
    14     8    10   am
    15    10    11    1
    16    10    26    1
    17    11    12   ar
    18    11    16   ar
    19    12    13   ar
    20    12    17    1
    21    13    14   ar
    22    13    27    1
    23    14    15   ar
    24    14    28    1
    25    15    16   ar
    26    15    18    1
    27    16    29    1
    28    18    19   am
    29    18    30    1
    30    19    20    2
    31    19    21    1
    32    21    31    1
    33    21    32    1
    34    21    33    1
@<TRIPOS>SUBSTRUCTURE
     1 LIG1        1 TEMP              0 ****  ****    0 ROOT


##########                                Name:     Z297320586.****
##########                        Cluster_Size:                   1
##########                          Grid_Score:          -29.868639
##########                     Grid_vdw_energy:          -26.017641
##########                      Grid_es_energy:           -3.850999
##########           Internal_energy_repulsive:           10.955503

@<TRIPOS>MOLECULE
Z297320586.****
 33 34 1 0 0
SMALL
USER_CHARGES
****

@<TRIPOS>ATOM
      1 C          16.2044  -41.4458  -11.4384 C.ar    1  LIG1        0.1900
      2 C          17.3237  -41.8875  -10.7451 C.ar    1  LIG1       -0.1500
      3 C          18.2914  -40.9573  -10.3766 C.ar    1  LIG1       -0.1500
      4 C          18.1277  -39.6128  -10.7095 C.ar    1  LIG1       -0.1500
      5 C          16.9948  -39.1736  -11.4253 C.ar    1  LIG1        0.0860
      6 C          16.0199  -40.1155  -11.7809 C.ar    1  LIG1       -0.1500
      7 F          15.2618  -42.3475  -11.7921 F       1  LIG1       -0.1900
      8 C          16.8142  -37.7672  -11.7956 C.2     1  LIG1        0.5440
      9 O          17.6562  -37.1289  -12.4135 O.2     1  LIG1       -0.5700
     10 N          15.6643  -37.1247  -11.3860 N.am    1  LIG1       -0.5470
     11 C          15.3007  -35.7726  -11.6390 C.ar    1  LIG1        0.1170
     12 C          14.3698  -35.5031  -12.6501 C.ar    1  LIG1        0.1900
     13 C          13.9707  -34.2066  -12.9504 C.ar    1  LIG1       -0.1500
     14 C          14.5223  -33.1455  -12.2340 C.ar    1  LIG1       -0.1500
     15 C          15.4719  -33.4074  -11.2388 C.ar    1  LIG1        0.1170
     16 C          15.8674  -34.7125  -10.9290 C.ar    1  LIG1       -0.1500
     17 F          13.8414  -36.5233  -13.3638 F       1  LIG1       -0.1900
     18 N          16.0036  -32.3039  -10.5327 N.am    1  LIG1       -0.5470
     19 C          16.1610  -31.0398  -11.0282 C.2     1  LIG1        0.5690
     20 O          15.8145  -30.7606  -12.1551 O.2     1  LIG1       -0.5700
     21 C          16.7503  -30.0226  -10.0908 C.3     1  LIG1       -0.1790
     22 H          17.4299  -42.9130  -10.5015 H       1  LIG1        0.1500
     23 H          19.1496  -41.2712   -9.8383 H       1  LIG1        0.1500
     24 H          18.8646  -38.9148  -10.4038 H       1  LIG1        0.1500
     25 H          15.1497  -39.8166  -12.3082 H       1  LIG1        0.1500
     26 H          15.0645  -37.6454  -10.7341 H       1  LIG1        0.3700
     27 H          13.2593  -34.0326  -13.7164 H       1  LIG1        0.1500
     28 H          14.2363  -32.1490  -12.4484 H       1  LIG1        0.1500
     29 H          16.5861  -34.8898  -10.1728 H       1  LIG1        0.1500
     30 H          16.2751  -32.4494   -9.5551 H       1  LIG1        0.3700
     31 H          16.8271  -29.0947  -10.6392 H       1  LIG1        0.0800
     32 H          16.0769  -29.9379   -9.2510 H       1  LIG1        0.0800
     33 H          17.7205  -30.3926   -9.7919 H       1  LIG1        0.0800
@<TRIPOS>BOND
     1     1     2   ar
     2     1     6   ar
     3     1     7    1
     4     2     3   ar
     5     2    22    1
     6     3     4   ar
     7     3    23    1
     8     4     5   ar
     9     4    24    1
    10     5     6   ar
    11     5     8    1
    12     6    25    1
    13     8     9    2
    14     8    10   am
    15    10    11    1
    16    10    26    1
    17    11    12   ar
    18    11    16   ar
    19    12    13   ar
    20    12    17    1
    21    13    14   ar
    22    13    27    1
    23    14    15   ar
    24    14    28    1
    25    15    16   ar
    26    15    18    1
    27    16    29    1
    28    18    19   am
    29    18    30    1
    30    19    20    2
    31    19    21    1
    32    21    31    1
    33    21    32    1
    34    21    33    1
@<TRIPOS>SUBSTRUCTURE
     1 LIG1        1 TEMP              0 ****  ****    0 ROOT


##########                                Name:      Z28051555.****
##########                        Cluster_Size:                   4
##########                          Grid_Score:          -39.019867
##########                     Grid_vdw_energy:          -30.633001
##########                      Grid_es_energy:           -8.386865
##########           Internal_energy_repulsive:            2.433699

@<TRIPOS>MOLECULE
Z28051555.****
 34 36 1 0 0
SMALL
USER_CHARGES
****

@<TRIPOS>ATOM
      1 C          15.0037  -34.2315  -11.3828 C.ar    1  LIG1       -0.1500
      2 C          15.6753  -34.0830  -10.1679 C.ar    1  LIG1       -0.1440
      3 C          16.2607  -32.8521   -9.8550 C.ar    1  LIG1       -0.1500
      4 C          16.1741  -31.7742  -10.7377 C.ar    1  LIG1       -0.1500
      5 C          15.5010  -31.9186  -11.9478 C.ar    1  LIG1       -0.1500
      6 C          14.9298  -33.1464  -12.2464 C.ar    1  LIG1        0.1900
      7 F          14.2734  -33.2938  -13.4201 F       1  LIG1       -0.1900
      8 C          15.7671  -35.2447   -9.1883 C.3     1  LIG1        0.0440
      9 C          16.2551  -36.4523   -9.9644 C.2     1  LIG1        0.5690
     10 N          15.6909  -37.6656   -9.6540 N.am    1  LIG1       -0.5470
     11 O          17.1234  -36.3676  -10.8080 O.2     1  LIG1       -0.5700
     12 C          15.9829  -38.9209  -10.2382 C.ar    1  LIG1        0.1170
     13 C          17.1674  -39.6039   -9.9580 C.ar    1  LIG1       -0.1500
     14 C          17.3736  -40.8451  -10.5601 C.ar    1  LIG1       -0.0230
     15 C          16.4453  -41.3909  -11.4524 C.ar    1  LIG1       -0.1500
     16 C          15.2798  -40.6820  -11.7339 C.ar    1  LIG1       -0.1500
     17 C          15.0440  -39.4489  -11.1280 C.ar    1  LIG1       -0.1500
     18 N          18.5702  -41.5865  -10.2480 N.ar    1  LIG1        0.5930
     19 N          19.2309  -42.3388  -11.1141 N.ar    1  LIG1       -0.4180
     20 N          20.2344  -42.8332  -10.4468 N.ar    1  LIG1        0.0000
     21 N          20.2092  -42.3967   -9.1574 N.ar    1  LIG1       -0.3380
     22 C          19.1797  -41.6394   -9.0719 C.ar    1  LIG1        0.0360
     23 H          14.5575  -35.1520  -11.6582 H       1  LIG1        0.1500
     24 H          16.7760  -32.7284   -8.9342 H       1  LIG1        0.1500
     25 H          16.6216  -30.8461  -10.4863 H       1  LIG1        0.1500
     26 H          15.4261  -31.1123  -12.6306 H       1  LIG1        0.1500
     27 H          14.7834  -35.4601   -8.7942 H       1  LIG1        0.0800
     28 H          16.4906  -35.0222   -8.4184 H       1  LIG1        0.0800
     29 H          15.0701  -37.6641   -8.8344 H       1  LIG1        0.3700
     30 H          17.8916  -39.1836   -9.3099 H       1  LIG1        0.1500
     31 H          16.6230  -42.3323  -11.9099 H       1  LIG1        0.1500
     32 H          14.5674  -41.0845  -12.4090 H       1  LIG1        0.1500
     33 H          14.1517  -38.9180  -11.3370 H       1  LIG1        0.1500
     34 H          18.8054  -41.1099   -8.2341 H       1  LIG1        0.1500
@<TRIPOS>BOND
     1     1     2   ar
     2     1     6   ar
     3     1    23    1
     4     2     3   ar
     5     2     8    1
     6     3     4   ar
     7     3    24    1
     8     4     5   ar
     9     4    25    1
    10     5     6   ar
    11     5    26    1
    12     6     7    1
    13     8     9    1
    14     8    27    1
    15     8    28    1
    16     9    10   am
    17     9    11    2
    18    10    12    1
    19    10    29    1
    20    12    13   ar
    21    12    17   ar
    22    13    14   ar
    23    13    30    1
    24    14    15   ar
    25    14    18    1
    26    15    16   ar
    27    15    31    1
    28    16    17   ar
    29    16    32    1
    30    17    33    1
    31    18    19   ar
    32    18    22   ar
    33    19    20   ar
    34    20    21   ar
    35    21    22   ar
    36    22    34    1
@<TRIPOS>SUBSTRUCTURE
     1 LIG1        1 TEMP              0 ****  ****    0 ROOT


##########                                Name:      Z28051555.****
##########                        Cluster_Size:                   1
##########                          Grid_Score:          -38.921535
##########                     Grid_vdw_energy:          -30.657215
##########                      Grid_es_energy:           -8.264321
##########           Internal_energy_repulsive:            7.817541

@<TRIPOS>MOLECULE
Z28051555.****
 34 36 1 0 0
SMALL
USER_CHARGES
****

@<TRIPOS>ATOM
      1 C          16.6351  -32.1406   -9.5468 C.ar    1  LIG1       -0.1500
      2 C          16.0672  -33.3380   -9.9860 C.ar    1  LIG1       -0.1440
      3 C          15.0948  -33.3068  -10.9906 C.ar    1  LIG1       -0.1500
      4 C          14.6941  -32.0972  -11.5604 C.ar    1  LIG1       -0.1500
      5 C          15.2622  -30.9023  -11.1272 C.ar    1  LIG1       -0.1500
      6 C          16.2216  -30.9486  -10.1271 C.ar    1  LIG1        0.1900
      7 F          16.7787  -29.7915   -9.7017 F       1  LIG1       -0.1900
      8 C          16.5031  -34.6668   -9.3843 C.3     1  LIG1        0.0440
      9 C          16.1734  -35.7491  -10.3936 C.2     1  LIG1        0.5690
     10 N          14.9252  -36.3174  -10.3166 N.am    1  LIG1       -0.5470
     11 O          16.9772  -36.1233  -11.2222 O.2     1  LIG1       -0.5700
     12 C          14.3952  -37.3365  -11.1430 C.ar    1  LIG1        0.1170
     13 C          13.2871  -37.1158  -11.9624 C.ar    1  LIG1       -0.1500
     14 C          12.8356  -38.1662  -12.7613 C.ar    1  LIG1       -0.0230
     15 C          13.4423  -39.4258  -12.7290 C.ar    1  LIG1       -0.1500
     16 C          14.5338  -39.6297  -11.8879 C.ar    1  LIG1       -0.1500
     17 C          15.0142  -38.5882  -11.0956 C.ar    1  LIG1       -0.1500
     18 N          11.7204  -37.9445  -13.6480 N.ar    1  LIG1        0.5930
     19 N          10.7957  -38.8497  -13.9271 N.ar    1  LIG1       -0.4180
     20 N           9.9806  -38.2657  -14.7586 N.ar    1  LIG1        0.0000
     21 N          10.3893  -36.9912  -15.0087 N.ar    1  LIG1       -0.3380
     22 C          11.4542  -36.8304  -14.3155 C.ar    1  LIG1        0.0360
     23 H          17.3664  -32.1246   -8.7805 H       1  LIG1        0.1500
     24 H          14.6544  -34.2118  -11.3310 H       1  LIG1        0.1500
     25 H          13.9566  -32.0891  -12.3226 H       1  LIG1        0.1500
     26 H          14.9697  -29.9749  -11.5471 H       1  LIG1        0.1500
     27 H          15.9404  -34.8529   -8.4800 H       1  LIG1        0.0800
     28 H          17.5709  -34.6671   -9.2245 H       1  LIG1        0.0800
     29 H          14.3660  -36.0394   -9.4997 H       1  LIG1        0.3700
     30 H          12.8003  -36.1756  -11.9689 H       1  LIG1        0.1500
     31 H          13.0792  -40.2174  -13.3362 H       1  LIG1        0.1500
     32 H          15.0033  -40.5803  -11.8536 H       1  LIG1        0.1500
     33 H          15.8507  -38.7446  -10.4651 H       1  LIG1        0.1500
     34 H          12.0807  -35.9796  -14.2376 H       1  LIG1        0.1500
@<TRIPOS>BOND
     1     1     2   ar
     2     1     6   ar
     3     1    23    1
     4     2     3   ar
     5     2     8    1
     6     3     4   ar
     7     3    24    1
     8     4     5   ar
     9     4    25    1
    10     5     6   ar
    11     5    26    1
    12     6     7    1
    13     8     9    1
    14     8    27    1
    15     8    28    1
    16     9    10   am
    17     9    11    2
    18    10    12    1
    19    10    29    1
    20    12    13   ar
    21    12    17   ar
    22    13    14   ar
    23    13    30    1
    24    14    15   ar
    25    14    18    1
    26    15    16   ar
    27    15    31    1
    28    16    17   ar
    29    16    32    1
    30    17    33    1
    31    18    19   ar
    32    18    22   ar
    33    19    20   ar
    34    20    21   ar
    35    21    22   ar
    36    22    34    1
@<TRIPOS>SUBSTRUCTURE
     1 LIG1        1 TEMP              0 ****  ****    0 ROOT


##########                                Name:      Z28051555.****
##########                        Cluster_Size:                   1
##########                          Grid_Score:          -38.424614
##########                     Grid_vdw_energy:          -32.949955
##########                      Grid_es_energy:           -5.474657
##########           Internal_energy_repulsive:            6.423879

@<TRIPOS>MOLECULE
Z28051555.****
 34 36 1 0 0
SMALL
USER_CHARGES
****

@<TRIPOS>ATOM
      1 C          15.6763  -31.1869  -11.5174 C.ar    1  LIG1       -0.1500
      2 C          15.3196  -32.5363  -11.5499 C.ar    1  LIG1       -0.1440
      3 C          15.7791  -33.3905  -10.5425 C.ar    1  LIG1       -0.1500
      4 C          16.5806  -32.9081   -9.5065 C.ar    1  LIG1       -0.1500
      5 C          16.9339  -31.5620   -9.4696 C.ar    1  LIG1       -0.1500
      6 C          16.4747  -30.7281  -10.4779 C.ar    1  LIG1        0.1900
      7 F          16.8133  -29.4187  -10.4480 F       1  LIG1       -0.1900
      8 C          14.4349  -33.0754  -12.6655 C.3     1  LIG1        0.0440
      9 C          14.7095  -34.5620  -12.7809 C.2     1  LIG1        0.5690
     10 N          13.8871  -35.4070  -12.0763 N.am    1  LIG1       -0.5470
     11 O          15.6281  -34.9975  -13.4437 O.2     1  LIG1       -0.5700
     12 C          13.9483  -36.8198  -12.0287 C.ar    1  LIG1        0.1170
     13 C          15.0368  -37.4895  -11.4679 C.ar    1  LIG1       -0.1500
     14 C          15.0141  -38.8839  -11.4427 C.ar    1  LIG1       -0.0230
     15 C          13.9533  -39.6104  -11.9929 C.ar    1  LIG1       -0.1500
     16 C          12.8871  -38.9217  -12.5665 C.ar    1  LIG1       -0.1500
     17 C          12.8797  -37.5277  -12.5846 C.ar    1  LIG1       -0.1500
     18 N          16.1084  -39.5927  -10.8270 N.ar    1  LIG1        0.5930
     19 N          16.5866  -40.7496  -11.2578 N.ar    1  LIG1       -0.4180
     20 N          17.5525  -41.0509  -10.4375 N.ar    1  LIG1        0.0000
     21 N          17.6857  -40.0869   -9.4853 N.ar    1  LIG1       -0.3380
     22 C          16.7875  -39.2138   -9.7533 C.ar    1  LIG1        0.0360
     23 H          15.3558  -30.5127  -12.2691 H       1  LIG1        0.1500
     24 H          15.5155  -34.4196  -10.5584 H       1  LIG1        0.1500
     25 H          16.9205  -33.5675   -8.7485 H       1  LIG1        0.1500
     26 H          17.5423  -31.1783   -8.6920 H       1  LIG1        0.1500
     27 H          14.7042  -32.5995  -13.5984 H       1  LIG1        0.0800
     28 H          13.3947  -32.9423  -12.4087 H       1  LIG1        0.0800
     29 H          13.2295  -34.9452  -11.4347 H       1  LIG1        0.3700
     30 H          15.8601  -36.9490  -11.0790 H       1  LIG1        0.1500
     31 H          13.9570  -40.6719  -11.9745 H       1  LIG1        0.1500
     32 H          12.0761  -39.4604  -12.9875 H       1  LIG1        0.1500
     33 H          12.0623  -37.0079  -13.0127 H       1  LIG1        0.1500
     34 H          16.5570  -38.3125   -9.2464 H       1  LIG1        0.1500
@<TRIPOS>BOND
     1     1     2   ar
     2     1     6   ar
     3     1    23    1
     4     2     3   ar
     5     2     8    1
     6     3     4   ar
     7     3    24    1
     8     4     5   ar
     9     4    25    1
    10     5     6   ar
    11     5    26    1
    12     6     7    1
    13     8     9    1
    14     8    27    1
    15     8    28    1
    16     9    10   am
    17     9    11    2
    18    10    12    1
    19    10    29    1
    20    12    13   ar
    21    12    17   ar
    22    13    14   ar
    23    13    30    1
    24    14    15   ar
    25    14    18    1
    26    15    16   ar
    27    15    31    1
    28    16    17   ar
    29    16    32    1
    30    17    33    1
    31    18    19   ar
    32    18    22   ar
    33    19    20   ar
    34    20    21   ar
    35    21    22   ar
    36    22    34    1
@<TRIPOS>SUBSTRUCTURE
     1 LIG1        1 TEMP              0 ****  ****    0 ROOT


##########                                Name:      Z28051555.****
##########                        Cluster_Size:                   2
##########                          Grid_Score:          -38.198807
##########                     Grid_vdw_energy:          -29.622606
##########                      Grid_es_energy:           -8.576200
##########           Internal_energy_repulsive:            5.523234

@<TRIPOS>MOLECULE
Z28051555.****
 34 36 1 0 0
SMALL
USER_CHARGES
****

@<TRIPOS>ATOM
      1 C          17.6227  -34.9562  -11.5217 C.ar    1  LIG1       -0.1500
      2 C          17.1541  -34.9619  -10.2066 C.ar    1  LIG1       -0.1440
      3 C          15.9823  -34.2657   -9.8941 C.ar    1  LIG1       -0.1500
      4 C          15.2765  -33.5748  -10.8806 C.ar    1  LIG1       -0.1500
      5 C          15.7394  -33.5715  -12.1936 C.ar    1  LIG1       -0.1500
      6 C          16.9053  -34.2623  -12.4873 C.ar    1  LIG1        0.1900
      7 F          17.3607  -34.2642  -13.7612 F       1  LIG1       -0.1900
      8 C          17.9048  -35.7218   -9.1217 C.3     1  LIG1        0.0440
      9 C          18.2203  -37.0991   -9.6713 C.2     1  LIG1        0.5690
     10 N          17.5260  -38.1589   -9.1406 N.am    1  LIG1       -0.5470
     11 O          19.0649  -37.2738  -10.5250 O.2     1  LIG1       -0.5700
     12 C          17.6474  -39.5245   -9.4908 C.ar    1  LIG1        0.1170
     13 C          16.6552  -40.1886  -10.2135 C.ar    1  LIG1       -0.1500
     14 C          16.8575  -41.5307  -10.5354 C.ar    1  LIG1       -0.0230
     15 C          18.0021  -42.2197  -10.1222 C.ar    1  LIG1       -0.1500
     16 C          18.9698  -41.5427   -9.3836 C.ar    1  LIG1       -0.1500
     17 C          18.7974  -40.1958   -9.0678 C.ar    1  LIG1       -0.1500
     18 N          15.8646  -42.2215  -11.3202 N.ar    1  LIG1        0.5930
     19 N          15.5388  -43.4947  -11.1608 N.ar    1  LIG1       -0.4180
     20 N          14.6211  -43.7308  -12.0546 N.ar    1  LIG1        0.0000
     21 N          14.3664  -42.6086  -12.7823 N.ar    1  LIG1       -0.3380
     22 C          15.1441  -41.7083  -12.3076 C.ar    1  LIG1        0.0360
     23 H          18.5123  -35.4634  -11.7932 H       1  LIG1        0.1500
     24 H          15.6176  -34.2615   -8.8963 H       1  LIG1        0.1500
     25 H          14.3884  -33.0524  -10.6292 H       1  LIG1        0.1500
     26 H          15.2179  -33.0518  -12.9551 H       1  LIG1        0.1500
     27 H          17.2680  -35.8318   -8.2548 H       1  LIG1        0.0800
     28 H          18.8370  -35.2241   -8.9001 H       1  LIG1        0.0800
     29 H          16.9364  -37.9348   -8.3285 H       1  LIG1        0.3700
     30 H          15.7697  -39.6847  -10.5019 H       1  LIG1        0.1500
     31 H          18.1353  -43.2441  -10.3672 H       1  LIG1        0.1500
     32 H          19.8427  -42.0534   -9.0639 H       1  LIG1        0.1500
     33 H          19.5404  -39.6822   -8.5148 H       1  LIG1        0.1500
     34 H          15.2574  -40.6972  -12.6032 H       1  LIG1        0.1500
@<TRIPOS>BOND
     1     1     2   ar
     2     1     6   ar
     3     1    23    1
     4     2     3   ar
     5     2     8    1
     6     3     4   ar
     7     3    24    1
     8     4     5   ar
     9     4    25    1
    10     5     6   ar
    11     5    26    1
    12     6     7    1
    13     8     9    1
    14     8    27    1
    15     8    28    1
    16     9    10   am
    17     9    11    2
    18    10    12    1
    19    10    29    1
    20    12    13   ar
    21    12    17   ar
    22    13    14   ar
    23    13    30    1
    24    14    15   ar
    25    14    18    1
    26    15    16   ar
    27    15    31    1
    28    16    17   ar
    29    16    32    1
    30    17    33    1
    31    18    19   ar
    32    18    22   ar
    33    19    20   ar
    34    20    21   ar
    35    21    22   ar
    36    22    34    1
@<TRIPOS>SUBSTRUCTURE
     1 LIG1        1 TEMP              0 ****  ****    0 ROOT


##########                                Name:      Z28051555.****
##########                        Cluster_Size:                   1
##########                          Grid_Score:          -37.723866
##########                     Grid_vdw_energy:          -31.745373
##########                      Grid_es_energy:           -5.978492
##########           Internal_energy_repulsive:            4.542752

@<TRIPOS>MOLECULE
Z28051555.****
 34 36 1 0 0
SMALL
USER_CHARGES
****

@<TRIPOS>ATOM
      1 C          15.7174  -31.4850  -11.6690 C.ar    1  LIG1       -0.1500
      2 C          15.4446  -32.7046  -11.0466 C.ar    1  LIG1       -0.1440
      3 C          15.9915  -32.9679   -9.7867 C.ar    1  LIG1       -0.1500
      4 C          16.7971  -32.0252   -9.1458 C.ar    1  LIG1       -0.1500
      5 C          17.0668  -30.8065   -9.7626 C.ar    1  LIG1       -0.1500
      6 C          16.5215  -30.5616  -11.0138 C.ar    1  LIG1        0.1900
      7 F          16.7785  -29.3792  -11.6187 F       1  LIG1       -0.1900
      8 C          14.5568  -33.7379  -11.7263 C.3     1  LIG1        0.0440
      9 C          15.4689  -34.7718  -12.3569 C.2     1  LIG1        0.5690
     10 N          16.7045  -34.9494  -11.7837 N.am    1  LIG1       -0.5470
     11 O          15.1429  -35.4038  -13.3403 O.2     1  LIG1       -0.5700
     12 C          17.7177  -35.8483  -12.1928 C.ar    1  LIG1        0.1170
     13 C          18.1256  -36.9120  -11.3864 C.ar    1  LIG1       -0.1500
     14 C          19.1183  -37.7649  -11.8686 C.ar    1  LIG1       -0.0230
     15 C          19.7265  -37.5547  -13.1102 C.ar    1  LIG1       -0.1500
     16 C          19.3187  -36.4745  -13.8893 C.ar    1  LIG1       -0.1500
     17 C          18.3142  -35.6209  -13.4356 C.ar    1  LIG1       -0.1500
     18 N          19.5211  -38.8956  -11.0697 N.ar    1  LIG1        0.5930
     19 N          20.7591  -39.3594  -11.0010 N.ar    1  LIG1       -0.4180
     20 N          20.7024  -40.3759  -10.1884 N.ar    1  LIG1        0.0000
     21 N          19.4286  -40.5585   -9.7436 N.ar    1  LIG1       -0.3380
     22 C          18.7349  -39.6383  -10.3029 C.ar    1  LIG1        0.0360
     23 H          15.3293  -31.2552  -12.6276 H       1  LIG1        0.1500
     24 H          15.7923  -33.8935   -9.3047 H       1  LIG1        0.1500
     25 H          17.2038  -32.2381   -8.1897 H       1  LIG1        0.1500
     26 H          17.6769  -30.0796   -9.2920 H       1  LIG1        0.1500
     27 H          13.9828  -33.2591  -12.5077 H       1  LIG1        0.0800
     28 H          13.9393  -34.2338  -10.9925 H       1  LIG1        0.0800
     29 H          16.9470  -34.2751  -11.0461 H       1  LIG1        0.3700
     30 H          17.6947  -37.0598  -10.4305 H       1  LIG1        0.1500
     31 H          20.4880  -38.2079  -13.4575 H       1  LIG1        0.1500
     32 H          19.7718  -36.3034  -14.8330 H       1  LIG1        0.1500
     33 H          18.0000  -34.8066  -14.0356 H       1  LIG1        0.1500
     34 H          17.6975  -39.4388  -10.2223 H       1  LIG1        0.1500
@<TRIPOS>BOND
     1     1     2   ar
     2     1     6   ar
     3     1    23    1
     4     2     3   ar
     5     2     8    1
     6     3     4   ar
     7     3    24    1
     8     4     5   ar
     9     4    25    1
    10     5     6   ar
    11     5    26    1
    12     6     7    1
    13     8     9    1
    14     8    27    1
    15     8    28    1
    16     9    10   am
    17     9    11    2
    18    10    12    1
    19    10    29    1
    20    12    13   ar
    21    12    17   ar
    22    13    14   ar
    23    13    30    1
    24    14    15   ar
    25    14    18    1
    26    15    16   ar
    27    15    31    1
    28    16    17   ar
    29    16    32    1
    30    17    33    1
    31    18    19   ar
    32    18    22   ar
    33    19    20   ar
    34    20    21   ar
    35    21    22   ar
    36    22    34    1
@<TRIPOS>SUBSTRUCTURE
     1 LIG1        1 TEMP              0 ****  ****    0 ROOT


##########                                Name:      Z28051555.****
##########                        Cluster_Size:                   1
##########                          Grid_Score:          -37.573509
##########                     Grid_vdw_energy:          -31.714731
##########                      Grid_es_energy:           -5.858778
##########           Internal_energy_repulsive:            2.289569

@<TRIPOS>MOLECULE
Z28051555.****
 34 36 1 0 0
SMALL
USER_CHARGES
****

@<TRIPOS>ATOM
      1 C          15.0318  -32.1757  -11.3936 C.ar    1  LIG1       -0.1500
      2 C          15.1462  -33.3287  -10.6148 C.ar    1  LIG1       -0.1440
      3 C          15.9936  -33.3225   -9.5024 C.ar    1  LIG1       -0.1500
      4 C          16.7168  -32.1785   -9.1609 C.ar    1  LIG1       -0.1500
      5 C          16.6009  -31.0260   -9.9334 C.ar    1  LIG1       -0.1500
      6 C          15.7604  -31.0488  -11.0361 C.ar    1  LIG1        0.1900
      7 F          15.6421  -29.9323  -11.7909 F       1  LIG1       -0.1900
      8 C          14.3539  -34.5805  -10.9659 C.3     1  LIG1        0.0440
      9 C          15.3492  -35.7111  -11.1385 C.2     1  LIG1        0.5690
     10 N          15.5143  -36.5672  -10.0770 N.am    1  LIG1       -0.5470
     11 O          15.9962  -35.8497  -12.1558 O.2     1  LIG1       -0.5700
     12 C          16.3784  -37.6853  -10.0044 C.ar    1  LIG1        0.1170
     13 C          15.9984  -38.9399  -10.4835 C.ar    1  LIG1       -0.1500
     14 C          16.9139  -39.9882  -10.3918 C.ar    1  LIG1       -0.0230
     15 C          18.1716  -39.8146   -9.8054 C.ar    1  LIG1       -0.1500
     16 C          18.5218  -38.5589   -9.3146 C.ar    1  LIG1       -0.1500
     17 C          17.6298  -37.4922   -9.4139 C.ar    1  LIG1       -0.1500
     18 N          16.5567  -41.2805  -10.9222 N.ar    1  LIG1        0.5930
     19 N          16.9192  -42.4351  -10.3856 N.ar    1  LIG1       -0.4180
     20 N          16.4057  -43.3507  -11.1569 N.ar    1  LIG1        0.0000
     21 N          15.7196  -42.7772  -12.1837 N.ar    1  LIG1       -0.3380
     22 C          15.8344  -41.5135  -12.0092 C.ar    1  LIG1        0.0360
     23 H          14.4079  -32.1469  -12.2493 H       1  LIG1        0.1500
     24 H          16.0900  -34.1950   -8.9039 H       1  LIG1        0.1500
     25 H          17.3546  -32.1880   -8.3135 H       1  LIG1        0.1500
     26 H          17.1428  -30.1490   -9.6903 H       1  LIG1        0.1500
     27 H          13.8375  -34.4269  -11.9034 H       1  LIG1        0.0800
     28 H          13.6888  -34.8360  -10.1546 H       1  LIG1        0.0800
     29 H          15.0324  -36.2912   -9.2116 H       1  LIG1        0.3700
     30 H          15.0359  -39.0894  -10.8988 H       1  LIG1        0.1500
     31 H          18.8525  -40.6260   -9.7344 H       1  LIG1        0.1500
     32 H          19.4725  -38.4135   -8.8672 H       1  LIG1        0.1500
     33 H          17.9041  -36.5367   -9.0486 H       1  LIG1        0.1500
     34 H          15.4499  -40.7188  -12.5949 H       1  LIG1        0.1500
@<TRIPOS>BOND
     1     1     2   ar
     2     1     6   ar
     3     1    23    1
     4     2     3   ar
     5     2     8    1
     6     3     4   ar
     7     3    24    1
     8     4     5   ar
     9     4    25    1
    10     5     6   ar
    11     5    26    1
    12     6     7    1
    13     8     9    1
    14     8    27    1
    15     8    28    1
    16     9    10   am
    17     9    11    2
    18    10    12    1
    19    10    29    1
    20    12    13   ar
    21    12    17   ar
    22    13    14   ar
    23    13    30    1
    24    14    15   ar
    25    14    18    1
    26    15    16   ar
    27    15    31    1
    28    16    17   ar
    29    16    32    1
    30    17    33    1
    31    18    19   ar
    32    18    22   ar
    33    19    20   ar
    34    20    21   ar
    35    21    22   ar
    36    22    34    1
@<TRIPOS>SUBSTRUCTURE
     1 LIG1        1 TEMP              0 ****  ****    0 ROOT


##########                                Name:              G5.sdf
##########                        Cluster_Size:                  10
##########                          Grid_Score:          -38.970943
##########                     Grid_vdw_energy:          -35.380146
##########                      Grid_es_energy:           -3.590799
##########           Internal_energy_repulsive:           45.809177

@<TRIPOS>MOLECULE
G5.sdf
 74 77 1 0 0
SMALL
USER_CHARGES
****

@<TRIPOS>ATOM
      1 C          16.0786  -33.6196  -10.3759 C.ar    1  LIG1       -0.1500
      2 C          16.4856  -32.6620   -9.4539 C.ar    1  LIG1       -0.1500
      3 C          16.3944  -31.3088   -9.7680 C.ar    1  LIG1       -0.1500
      4 C          15.8890  -30.9143  -11.0034 C.ar    1  LIG1       -0.1500
      5 C          15.4818  -31.8701  -11.9268 C.ar    1  LIG1       -0.1500
      6 C          15.5820  -33.2374  -11.6327 C.ar    1  LIG1        0.0860
      7 C          15.1667  -34.2345  -12.6205 C.2     1  LIG1        0.3980
      8 O          14.2025  -34.0011  -13.3366 O.2     1  LIG1       -0.5700
      9 C          15.8767  -35.5043  -12.7784 C.ar    1  LIG1        0.0860
     10 C          17.1236  -35.5397  -13.4193 C.ar    1  LIG1       -0.1500
     11 C          17.8037  -36.7391  -13.5877 C.ar    1  LIG1       -0.1500
     12 C          17.2619  -37.9439  -13.1173 C.ar    1  LIG1        0.0860
     13 C          16.0257  -37.9070  -12.4517 C.ar    1  LIG1       -0.1500
     14 C          15.3449  -36.7067  -12.2846 C.ar    1  LIG1       -0.1500
     15 C          17.9898  -39.1998  -13.3250 C.2     1  LIG1        0.5440
     16 N          18.1488  -40.0700  -12.2827 N.am    1  LIG1       -0.7300
     17 O          18.4493  -39.5411  -14.4102 O.2     1  LIG1       -0.5700
     18 C          18.8740  -41.3550  -12.4282 C.3     1  LIG1        0.2810
     19 C          20.2909  -41.0789  -12.9769 C.2     1  LIG1        0.5690
     20 C          18.0784  -42.2316  -13.4281 C.3     1  LIG1       -0.1600
     21 C          16.7190  -42.6663  -12.8297 C.3     1  LIG1       -0.0800
     22 C          16.9524  -43.0892  -11.3667 C.3     1  LIG1       -0.1600
     23 C          15.6465  -43.5236  -10.6858 C.3     1  LIG1       -0.1600
     24 C          14.6030  -42.4009  -10.7451 C.3     1  LIG1       -0.1600
     25 C          14.3525  -41.9721  -12.1970 C.3     1  LIG1       -0.1600
     26 C          15.6589  -41.5460  -12.8825 C.3     1  LIG1       -0.1600
     27 N          20.8895  -42.1001  -13.5872 N.am    1  LIG1       -0.7300
     28 O          20.8899  -40.0157  -12.8240 O.2     1  LIG1       -0.5700
     29 C          22.2336  -42.0969  -14.1924 C.3     1  LIG1        0.2810
     30 C          23.3827  -42.5091  -13.2169 C.2     1  LIG1        0.5690
     31 C          22.2000  -43.0695  -15.3995 C.3     1  LIG1       -0.0650
     32 C          21.1376  -42.5629  -16.4035 C.3     1  LIG1       -0.1950
     33 C          20.9720  -43.3920  -17.6425 C.3     1  LIG1       -0.2000
     34 C          21.6607  -42.0476  -17.7112 C.3     1  LIG1       -0.2000
     35 N          23.9835  -41.5459  -12.5108 N.am    1  LIG1       -0.7300
     36 O          23.7148  -43.6840  -13.0702 O.2     1  LIG1       -0.5700
     37 C          25.0674  -41.7773  -11.5644 C.3     1  LIG1        0.0600
     38 H          16.1377  -34.6470  -10.1191 H       1  LIG1        0.1500
     39 H          16.8604  -32.9596   -8.5079 H       1  LIG1        0.1500
     40 H          16.7040  -30.5792   -9.0642 H       1  LIG1        0.1500
     41 H          15.8122  -29.8832  -11.2390 H       1  LIG1        0.1500
     42 H          15.0907  -31.5661  -12.8651 H       1  LIG1        0.1500
     43 H          17.5494  -34.6361  -13.7787 H       1  LIG1        0.1500
     44 H          18.7454  -36.7445  -14.0764 H       1  LIG1        0.1500
     45 H          15.6086  -38.7976  -12.0568 H       1  LIG1        0.1500
     46 H          14.4185  -36.6999  -11.7675 H       1  LIG1        0.1500
     47 H          17.5563  -39.9547  -11.4521 H       1  LIG1        0.3700
     48 H          18.9756  -41.8491  -11.4712 H       1  LIG1        0.0800
     49 H          18.6658  -43.1197  -13.6700 H       1  LIG1        0.0800
     50 H          17.9196  -41.6686  -14.3486 H       1  LIG1        0.0800
     51 H          16.3348  -43.5339  -13.3715 H       1  LIG1        0.0800
     52 H          17.3810  -42.2540  -10.8098 H       1  LIG1        0.0800
     53 H          17.6578  -43.9206  -11.3330 H       1  LIG1        0.0800
     54 H          15.8474  -43.7764   -9.6435 H       1  LIG1        0.0800
     55 H          15.2534  -44.4105  -11.1860 H       1  LIG1        0.0800
     56 H          14.9590  -41.5441  -10.1706 H       1  LIG1        0.0800
     57 H          13.6680  -42.7495  -10.3026 H       1  LIG1        0.0800
     58 H          13.6475  -41.1398  -12.2107 H       1  LIG1        0.0800
     59 H          13.9108  -42.8052  -12.7475 H       1  LIG1        0.0800
     60 H          16.0453  -40.6535  -12.3866 H       1  LIG1        0.0800
     61 H          15.4262  -41.2951  -13.9173 H       1  LIG1        0.0800
     62 H          20.3911  -42.9857  -13.5692 H       1  LIG1        0.3700
     63 H          22.4584  -41.0836  -14.5265 H       1  LIG1        0.0800
     64 H          21.9275  -44.0584  -15.0549 H       1  LIG1        0.0800
     65 H          23.1721  -43.0636  -15.8756 H       1  LIG1        0.0800
     66 H          20.2515  -42.1048  -15.9810 H       1  LIG1        0.1000
     67 H          19.9734  -43.4441  -18.0573 H       1  LIG1        0.1000
     68 H          21.6017  -44.2667  -17.7467 H       1  LIG1        0.1000
     69 H          21.1024  -41.2420  -18.1692 H       1  LIG1        0.1000
     70 H          22.7328  -42.0627  -17.8632 H       1  LIG1        0.1000
     71 H          23.7037  -40.5915  -12.7299 H       1  LIG1        0.3700
     72 H          25.4228  -40.8274  -11.1621 H       1  LIG1        0.0800
     73 H          24.7136  -42.4072  -10.7460 H       1  LIG1        0.0800
     74 H          25.8934  -42.2861  -12.0655 H       1  LIG1        0.0800
@<TRIPOS>BOND
     1     1     2   ar
     2     1     6   ar
     3     1    38    1
     4     2     3   ar
     5     2    39    1
     6     3     4   ar
     7     3    40    1
     8     4     5   ar
     9     4    41    1
    10     5     6   ar
    11     5    42    1
    12     6     7    1
    13     7     8    2
    14     7     9    1
    15     9    10   ar
    16     9    14   ar
    17    10    11   ar
    18    10    43    1
    19    11    12   ar
    20    11    44    1
    21    12    13   ar
    22    12    15    1
    23    13    14   ar
    24    13    45    1
    25    14    46    1
    26    15    16   am
    27    15    17    2
    28    16    18    1
    29    16    47    1
    30    18    19    1
    31    18    20    1
    32    18    48    1
    33    19    27   am
    34    19    28    2
    35    20    21    1
    36    20    49    1
    37    20    50    1
    38    21    22    1
    39    21    26    1
    40    21    51    1
    41    22    23    1
    42    22    52    1
    43    22    53    1
    44    23    24    1
    45    23    54    1
    46    23    55    1
    47    24    25    1
    48    24    56    1
    49    24    57    1
    50    25    26    1
    51    25    58    1
    52    25    59    1
    53    26    60    1
    54    26    61    1
    55    27    29    1
    56    27    62    1
    57    29    30    1
    58    29    31    1
    59    29    63    1
    60    30    35   am
    61    30    36    2
    62    31    32    1
    63    31    64    1
    64    31    65    1
    65    32    33    1
    66    32    34    1
    67    32    66    1
    68    33    34    1
    69    33    67    1
    70    33    68    1
    71    34    69    1
    72    34    70    1
    73    35    37    1
    74    35    71    1
    75    37    72    1
    76    37    73    1
    77    37    74    1
@<TRIPOS>SUBSTRUCTURE
     1 LIG1        1 TEMP              0 ****  ****    0 ROOT


##########                                Name:     Z757130778.****
##########                        Cluster_Size:                   1
##########                          Grid_Score:          -41.313450
##########                     Grid_vdw_energy:          -28.163414
##########                      Grid_es_energy:          -13.150037
##########           Internal_energy_repulsive:           10.289347

@<TRIPOS>MOLECULE
Z757130778.****
 53 56 1 0 0
SMALL
USER_CHARGES
****

@<TRIPOS>ATOM
      1 C          17.6283  -41.9087  -12.9233 C.ar    1  LIG1        0.0830
      2 C          16.4148  -41.7116  -13.5787 C.ar    1  LIG1       -0.1500
      3 C          15.7089  -40.5319  -13.3698 C.ar    1  LIG1       -0.1500
      4 C          16.2132  -39.5383  -12.5127 C.ar    1  LIG1        0.0860
      5 C          17.4261  -39.7673  -11.8460 C.ar    1  LIG1       -0.1500
      6 C          18.1354  -40.9461  -12.0478 C.ar    1  LIG1       -0.1500
      7 O          18.2847  -43.0979  -13.1467 O.3     1  LIG1       -0.1650
      8 C          19.3739  -43.2661  -13.9770 C.ar    1  LIG1        0.0830
      9 C          20.5059  -43.9524  -13.5367 C.ar    1  LIG1       -0.1500
     10 C          21.5874  -44.1019  -14.4001 C.ar    1  LIG1       -0.1500
     11 C          21.5347  -43.5624  -15.6855 C.ar    1  LIG1       -0.1500
     12 C          20.4015  -42.8700  -16.1105 C.ar    1  LIG1       -0.1500
     13 C          19.3161  -42.7170  -15.2541 C.ar    1  LIG1       -0.1500
     14 C          15.4827  -38.2897  -12.2892 C.2     1  LIG1        0.5440
     15 N          15.7438  -37.4603  -11.2415 N.am    1  LIG1       -0.7300
     16 O          14.5693  -37.9058  -12.9965 O.2     1  LIG1       -0.5700
     17 C          15.0440  -36.2180  -10.9865 C.3     1  LIG1        0.2200
     18 C          15.5638  -35.6937   -9.6450 C.3     1  LIG1       -0.1600
     19 C          14.9236  -34.3161   -9.4210 C.3     1  LIG1        0.3430
     20 N          15.4092  -33.4680  -10.5290 N.4     1  LIG1       -0.9590
     21 C          14.7830  -33.9044  -11.7975 C.3     1  LIG1        0.3430
     22 C          15.4163  -35.2627  -12.1252 C.3     1  LIG1       -0.1600
     23 C          15.0060  -32.0825  -10.2556 C.3     1  LIG1        0.4380
     24 C          15.8346  -31.2739  -11.2648 C.3     1  LIG1       -0.1950
     25 C          15.8711  -29.7917  -11.0351 C.3     1  LIG1       -0.2000
     26 C          17.0880  -30.6358  -10.7351 C.3     1  LIG1       -0.2000
     27 H          16.0363  -42.4650  -14.2198 H       1  LIG1        0.1500
     28 H          14.7734  -40.3874  -13.8475 H       1  LIG1        0.1500
     29 H          17.7968  -39.0360  -11.1729 H       1  LIG1        0.1500
     30 H          19.0446  -41.1175  -11.5295 H       1  LIG1        0.1500
     31 H          20.5414  -44.3511  -12.5563 H       1  LIG1        0.1500
     32 H          22.4538  -44.6227  -14.0800 H       1  LIG1        0.1500
     33 H          22.3601  -43.6775  -16.3402 H       1  LIG1        0.1500
     34 H          20.3688  -42.4580  -17.0870 H       1  LIG1        0.1500
     35 H          18.4511  -42.1907  -15.5659 H       1  LIG1        0.1500
     36 H          16.7162  -37.5424  -10.9096 H       1  LIG1        0.3700
     37 H          13.9574  -36.3331  -10.9413 H       1  LIG1        0.0800
     38 H          16.6527  -35.6159   -9.6488 H       1  LIG1        0.0800
     39 H          15.2594  -36.3717   -8.8462 H       1  LIG1        0.0800
     40 H          15.2775  -33.9310   -8.4707 H       1  LIG1        0.0800
     41 H          13.8431  -34.4119   -9.4509 H       1  LIG1        0.0800
     42 H          15.0330  -33.2148  -12.5975 H       1  LIG1        0.0800
     43 H          13.7114  -34.0247  -11.6801 H       1  LIG1        0.0800
     44 H          15.0084  -35.6371  -13.0651 H       1  LIG1        0.0800
     45 H          16.5001  -35.1697  -12.2215 H       1  LIG1        0.0800
     46 H          15.3125  -31.7886   -9.2571 H       1  LIG1        0.0800
     47 H          13.9481  -31.9267  -10.4340 H       1  LIG1        0.0800
     48 H          15.8226  -31.6257  -12.2879 H       1  LIG1        0.1000
     49 H          15.3375  -29.3922  -10.1810 H       1  LIG1        0.1000
     50 H          15.9293  -29.1643  -11.9172 H       1  LIG1        0.1000
     51 H          17.9165  -30.5335  -11.4261 H       1  LIG1        0.1000
     52 H          17.3295  -30.7549   -9.6856 H       1  LIG1        0.1000
     53 H          16.4210  -33.4958  -10.5982 H       1  LIG1        0.4500
@<TRIPOS>BOND
     1     1     2   ar
     2     1     6   ar
     3     1     7    1
     4     2     3   ar
     5     2    27    1
     6     3     4   ar
     7     3    28    1
     8     4     5   ar
     9     4    14    1
    10     5     6   ar
    11     5    29    1
    12     6    30    1
    13     7     8    1
    14     8     9   ar
    15     8    13   ar
    16     9    10   ar
    17     9    31    1
    18    10    11   ar
    19    10    32    1
    20    11    12   ar
    21    11    33    1
    22    12    13   ar
    23    12    34    1
    24    13    35    1
    25    14    15   am
    26    14    16    2
    27    15    17    1
    28    15    36    1
    29    17    18    1
    30    17    22    1
    31    17    37    1
    32    18    19    1
    33    18    38    1
    34    18    39    1
    35    19    20    1
    36    19    40    1
    37    19    41    1
    38    20    21    1
    39    20    23    1
    40    20    53    1
    41    21    22    1
    42    21    42    1
    43    21    43    1
    44    22    44    1
    45    22    45    1
    46    23    24    1
    47    23    46    1
    48    23    47    1
    49    24    25    1
    50    24    26    1
    51    24    48    1
    52    25    26    1
    53    25    49    1
    54    25    50    1
    55    26    51    1
    56    26    52    1
@<TRIPOS>SUBSTRUCTURE
     1 LIG1        1 TEMP              0 ****  ****    0 ROOT


##########                                Name:     Z757130778.****
##########                        Cluster_Size:                   3
##########                          Grid_Score:          -37.536484
##########                     Grid_vdw_energy:          -33.047947
##########                      Grid_es_energy:           -4.488539
##########           Internal_energy_repulsive:            9.016289

@<TRIPOS>MOLECULE
Z757130778.****
 53 56 1 0 0
SMALL
USER_CHARGES
****

@<TRIPOS>ATOM
      1 C          15.2906  -34.5033  -10.3864 C.ar    1  LIG1        0.0830
      2 C          15.5490  -34.6796  -11.7441 C.ar    1  LIG1       -0.1500
      3 C          16.0386  -35.9010  -12.1937 C.ar    1  LIG1       -0.1500
      4 C          16.2654  -36.9564  -11.2932 C.ar    1  LIG1        0.0860
      5 C          16.0194  -36.7495   -9.9277 C.ar    1  LIG1       -0.1500
      6 C          15.5330  -35.5297   -9.4708 C.ar    1  LIG1       -0.1500
      7 O          14.8227  -33.2729   -9.9837 O.3     1  LIG1       -0.1650
      8 C          15.4648  -32.0683  -10.1855 C.ar    1  LIG1        0.0830
      9 C          16.5577  -31.7032   -9.3990 C.ar    1  LIG1       -0.1500
     10 C          17.1805  -30.4797   -9.6286 C.ar    1  LIG1       -0.1500
     11 C          16.7064  -29.6318  -10.6299 C.ar    1  LIG1       -0.1500
     12 C          15.6071  -30.0036  -11.4028 C.ar    1  LIG1       -0.1500
     13 C          14.9798  -31.2251  -11.1802 C.ar    1  LIG1       -0.1500
     14 C          16.7748  -38.2486  -11.7548 C.2     1  LIG1        0.5440
     15 N          16.9224  -39.3206  -10.9285 N.am    1  LIG1       -0.7300
     16 O          17.1341  -38.4636  -12.8979 O.2     1  LIG1       -0.5700
     17 C          17.4223  -40.6141  -11.3467 C.3     1  LIG1        0.2200
     18 C          18.9413  -40.4715  -11.4774 C.3     1  LIG1       -0.1600
     19 C          19.4988  -41.8657  -11.7988 C.3     1  LIG1        0.3430
     20 N          19.1585  -42.7075  -10.6334 N.4     1  LIG1       -0.9590
     21 C          17.6982  -42.9499  -10.6075 C.3     1  LIG1        0.3430
     22 C          17.0625  -41.6045  -10.2343 C.3     1  LIG1       -0.1600
     23 C          19.8484  -43.9955  -10.7820 C.3     1  LIG1        0.4380
     24 C          21.3301  -43.5934  -10.8226 C.3     1  LIG1       -0.1950
     25 C          21.8415  -42.8759   -9.6083 C.3     1  LIG1       -0.2000
     26 C          22.2394  -44.3110   -9.8649 C.3     1  LIG1       -0.2000
     27 H          15.3812  -33.8801  -12.4182 H       1  LIG1        0.1500
     28 H          16.2594  -36.0322  -13.2224 H       1  LIG1        0.1500
     29 H          16.2188  -37.5307   -9.2382 H       1  LIG1        0.1500
     30 H          15.3626  -35.3767   -8.4354 H       1  LIG1        0.1500
     31 H          16.9056  -32.3486   -8.6349 H       1  LIG1        0.1500
     32 H          18.0133  -30.1896   -9.0400 H       1  LIG1        0.1500
     33 H          17.1826  -28.7007  -10.8017 H       1  LIG1        0.1500
     34 H          15.2483  -29.3532  -12.1594 H       1  LIG1        0.1500
     35 H          14.1423  -31.5165  -11.7599 H       1  LIG1        0.1500
     36 H          16.2735  -39.2907  -10.1282 H       1  LIG1        0.3700
     37 H          17.0012  -40.9561  -12.2962 H       1  LIG1        0.0800
     38 H          19.3804  -40.0847  -10.5557 H       1  LIG1        0.0800
     39 H          19.1741  -39.7880  -12.2954 H       1  LIG1        0.0800
     40 H          20.5756  -41.7825  -11.9000 H       1  LIG1        0.0800
     41 H          19.0275  -42.2430  -12.7005 H       1  LIG1        0.0800
     42 H          17.4494  -43.6665   -9.8312 H       1  LIG1        0.0800
     43 H          17.3390  -43.2608  -11.5826 H       1  LIG1        0.0800
     44 H          15.9787  -41.7167  -10.1806 H       1  LIG1        0.0800
     45 H          17.4313  -41.2591   -9.2662 H       1  LIG1        0.0800
     46 H          19.5979  -44.4520  -11.7339 H       1  LIG1        0.0800
     47 H          19.6645  -44.6520   -9.9391 H       1  LIG1        0.0800
     48 H          21.7209  -43.2955  -11.7866 H       1  LIG1        0.1000
     49 H          21.1552  -42.7041   -8.7877 H       1  LIG1        0.1000
     50 H          22.6101  -42.1294   -9.7724 H       1  LIG1        0.1000
     51 H          23.2630  -44.4680  -10.1842 H       1  LIG1        0.1000
     52 H          21.8122  -45.0442   -9.1913 H       1  LIG1        0.1000
     53 H          19.4684  -42.2801   -9.7670 H       1  LIG1        0.4500
@<TRIPOS>BOND
     1     1     2   ar
     2     1     6   ar
     3     1     7    1
     4     2     3   ar
     5     2    27    1
     6     3     4   ar
     7     3    28    1
     8     4     5   ar
     9     4    14    1
    10     5     6   ar
    11     5    29    1
    12     6    30    1
    13     7     8    1
    14     8     9   ar
    15     8    13   ar
    16     9    10   ar
    17     9    31    1
    18    10    11   ar
    19    10    32    1
    20    11    12   ar
    21    11    33    1
    22    12    13   ar
    23    12    34    1
    24    13    35    1
    25    14    15   am
    26    14    16    2
    27    15    17    1
    28    15    36    1
    29    17    18    1
    30    17    22    1
    31    17    37    1
    32    18    19    1
    33    18    38    1
    34    18    39    1
    35    19    20    1
    36    19    40    1
    37    19    41    1
    38    20    21    1
    39    20    23    1
    40    20    53    1
    41    21    22    1
    42    21    42    1
    43    21    43    1
    44    22    44    1
    45    22    45    1
    46    23    24    1
    47    23    46    1
    48    23    47    1
    49    24    25    1
    50    24    26    1
    51    24    48    1
    52    25    26    1
    53    25    49    1
    54    25    50    1
    55    26    51    1
    56    26    52    1
@<TRIPOS>SUBSTRUCTURE
     1 LIG1        1 TEMP              0 ****  ****    0 ROOT


##########                                Name:     Z757130778.****
##########                        Cluster_Size:                   1
##########                          Grid_Score:          -34.388672
##########                     Grid_vdw_energy:          -20.462358
##########                      Grid_es_energy:          -13.926313
##########           Internal_energy_repulsive:           74.778709

@<TRIPOS>MOLECULE
Z757130778.****
 53 56 1 0 0
SMALL
USER_CHARGES
****

@<TRIPOS>ATOM
      1 C          19.1091  -41.8734  -14.7238 C.ar    1  LIG1        0.0830
      2 C          18.2390  -40.8213  -15.0017 C.ar    1  LIG1       -0.1500
      3 C          17.8268  -39.9846  -13.9703 C.ar    1  LIG1       -0.1500
      4 C          18.2867  -40.1870  -12.6574 C.ar    1  LIG1        0.0860
      5 C          19.1446  -41.2659  -12.3965 C.ar    1  LIG1       -0.1500
      6 C          19.5580  -42.1084  -13.4224 C.ar    1  LIG1       -0.1500
      7 O          19.4776  -42.6862  -15.7719 O.3     1  LIG1       -0.1650
      8 C          18.8267  -42.7700  -16.9857 C.ar    1  LIG1        0.0830
      9 C          17.4378  -42.8885  -17.0425 C.ar    1  LIG1       -0.1500
     10 C          16.8141  -42.9726  -18.2840 C.ar    1  LIG1       -0.1500
     11 C          17.5766  -42.9456  -19.4519 C.ar    1  LIG1       -0.1500
     12 C          18.9649  -42.8368  -19.3818 C.ar    1  LIG1       -0.1500
     13 C          19.5958  -42.7513  -18.1450 C.ar    1  LIG1       -0.1500
     14 C          17.8650  -39.3097  -11.5643 C.2     1  LIG1        0.5440
     15 N          16.9982  -38.2749  -11.7420 N.am    1  LIG1       -0.7300
     16 O          18.2723  -39.4111  -10.4215 O.2     1  LIG1       -0.5700
     17 C          16.5574  -37.3856  -10.6871 C.3     1  LIG1        0.2200
     18 C          17.7029  -36.3991  -10.4434 C.3     1  LIG1       -0.1600
     19 C          17.2031  -35.3734   -9.4157 C.3     1  LIG1        0.3430
     20 N          16.0625  -34.6900  -10.0596 N.4     1  LIG1       -0.9590
     21 C          14.9172  -35.6230  -10.1566 C.3     1  LIG1        0.3430
     22 C          15.3164  -36.6587  -11.2156 C.3     1  LIG1       -0.1600
     23 C          15.6745  -33.5525   -9.2154 C.3     1  LIG1        0.4380
     24 C          14.7360  -32.7476  -10.1267 C.3     1  LIG1       -0.1950
     25 C          15.3416  -32.2520  -11.4067 C.3     1  LIG1       -0.2000
     26 C          14.3555  -33.3969  -11.4275 C.3     1  LIG1       -0.2000
     27 H          17.8914  -40.6755  -15.9915 H       1  LIG1        0.1500
     28 H          17.1461  -39.1973  -14.1724 H       1  LIG1        0.1500
     29 H          19.4700  -41.4442  -11.4026 H       1  LIG1        0.1500
     30 H          20.1957  -42.9298  -13.2146 H       1  LIG1        0.1500
     31 H          16.8671  -42.9173  -16.1510 H       1  LIG1        0.1500
     32 H          15.7591  -43.0611  -18.3428 H       1  LIG1        0.1500
     33 H          17.0986  -43.0104  -20.3956 H       1  LIG1        0.1500
     34 H          19.5398  -42.8214  -20.2727 H       1  LIG1        0.1500
     35 H          20.6502  -42.6708  -18.0801 H       1  LIG1        0.1500
     36 H          16.3636  -38.4279  -12.5397 H       1  LIG1        0.3700
     37 H          16.3132  -37.9042   -9.7558 H       1  LIG1        0.0800
     38 H          17.9980  -35.9029  -11.3699 H       1  LIG1        0.0800
     39 H          18.5634  -36.9329  -10.0372 H       1  LIG1        0.0800
     40 H          18.0052  -34.6679   -9.2268 H       1  LIG1        0.0800
     41 H          16.8875  -35.8901   -8.5153 H       1  LIG1        0.0800
     42 H          14.0350  -35.1005  -10.5128 H       1  LIG1        0.0800
     43 H          14.7428  -36.1234   -9.2101 H       1  LIG1        0.0800
     44 H          14.5033  -37.3733  -11.3504 H       1  LIG1        0.0800
     45 H          15.5230  -36.1728  -12.1715 H       1  LIG1        0.0800
     46 H          16.5378  -32.9343   -8.9923 H       1  LIG1        0.0800
     47 H          15.1443  -33.8719   -8.3254 H       1  LIG1        0.0800
     48 H          14.0133  -32.1126   -9.6314 H       1  LIG1        0.1000
     49 H          16.3754  -32.5008  -11.6145 H       1  LIG1        0.1000
     50 H          14.9790  -31.3011  -11.7799 H       1  LIG1        0.1000
     51 H          13.3725  -33.1672  -11.8217 H       1  LIG1        0.1000
     52 H          14.7701  -34.3693  -11.6652 H       1  LIG1        0.1000
     53 H          16.3156  -34.3334  -10.9751 H       1  LIG1        0.4500
@<TRIPOS>BOND
     1     1     2   ar
     2     1     6   ar
     3     1     7    1
     4     2     3   ar
     5     2    27    1
     6     3     4   ar
     7     3    28    1
     8     4     5   ar
     9     4    14    1
    10     5     6   ar
    11     5    29    1
    12     6    30    1
    13     7     8    1
    14     8     9   ar
    15     8    13   ar
    16     9    10   ar
    17     9    31    1
    18    10    11   ar
    19    10    32    1
    20    11    12   ar
    21    11    33    1
    22    12    13   ar
    23    12    34    1
    24    13    35    1
    25    14    15   am
    26    14    16    2
    27    15    17    1
    28    15    36    1
    29    17    18    1
    30    17    22    1
    31    17    37    1
    32    18    19    1
    33    18    38    1
    34    18    39    1
    35    19    20    1
    36    19    40    1
    37    19    41    1
    38    20    21    1
    39    20    23    1
    40    20    53    1
    41    21    22    1
    42    21    42    1
    43    21    43    1
    44    22    44    1
    45    22    45    1
    46    23    24    1
    47    23    46    1
    48    23    47    1
    49    24    25    1
    50    24    26    1
    51    24    48    1
    52    25    26    1
    53    25    49    1
    54    25    50    1
    55    26    51    1
    56    26    52    1
@<TRIPOS>SUBSTRUCTURE
     1 LIG1        1 TEMP              0 ****  ****    0 ROOT


##########                                Name:     Z757130778.****
##########                        Cluster_Size:                   1
##########                          Grid_Score:          -33.810352
##########                     Grid_vdw_energy:          -36.076603
##########                      Grid_es_energy:            2.266251
##########           Internal_energy_repulsive:           19.997242

@<TRIPOS>MOLECULE
Z757130778.****
 53 56 1 0 0
SMALL
USER_CHARGES
****

@<TRIPOS>ATOM
      1 C          15.1814  -34.6410  -10.7206 C.ar    1  LIG1        0.0830
      2 C          16.2502  -34.9388  -11.5632 C.ar    1  LIG1       -0.1500
      3 C          16.1089  -35.9387  -12.5192 C.ar    1  LIG1       -0.1500
      4 C          14.8981  -36.6415  -12.6461 C.ar    1  LIG1        0.0860
      5 C          13.8426  -36.3404  -11.7724 C.ar    1  LIG1       -0.1500
      6 C          13.9782  -35.3441  -10.8121 C.ar    1  LIG1       -0.1500
      7 O          15.3713  -33.6556   -9.7782 O.3     1  LIG1       -0.1650
      8 C          15.8585  -32.3899  -10.0322 C.ar    1  LIG1        0.0830
      9 C          16.8364  -31.8254   -9.2128 C.ar    1  LIG1       -0.1500
     10 C          17.3040  -30.5455   -9.4970 C.ar    1  LIG1       -0.1500
     11 C          16.7901  -29.8400  -10.5852 C.ar    1  LIG1       -0.1500
     12 C          15.8058  -30.4110  -11.3909 C.ar    1  LIG1       -0.1500
     13 C          15.3339  -31.6900  -11.1141 C.ar    1  LIG1       -0.1500
     14 C          14.7348  -37.6919  -13.6522 C.2     1  LIG1        0.5440
     15 N          15.7695  -38.4615  -14.0893 N.am    1  LIG1       -0.7300
     16 O          13.6772  -37.9440  -14.1999 O.2     1  LIG1       -0.5700
     17 C          15.6484  -39.5092  -15.0820 C.3     1  LIG1        0.2200
     18 C          15.9462  -38.8607  -16.4368 C.3     1  LIG1       -0.1600
     19 C          15.9442  -39.9838  -17.4841 C.3     1  LIG1        0.3430
     20 N          17.0428  -40.8915  -17.0945 N.4     1  LIG1       -0.9590
     21 C          16.6725  -41.6140  -15.8565 C.3     1  LIG1        0.3430
     22 C          16.7062  -40.5634  -14.7392 C.3     1  LIG1       -0.1600
     23 C          17.2326  -41.8700  -18.1733 C.3     1  LIG1        0.4380
     24 C          18.3848  -42.7419  -17.6529 C.3     1  LIG1       -0.1950
     25 C          18.8147  -43.8579  -18.5587 C.3     1  LIG1       -0.2000
     26 C          19.6868  -42.6346  -18.3959 C.3     1  LIG1       -0.2000
     27 H          17.1622  -34.4099  -11.4608 H       1  LIG1        0.1500
     28 H          16.9272  -36.1854  -13.1467 H       1  LIG1        0.1500
     29 H          12.9370  -36.8887  -11.8409 H       1  LIG1        0.1500
     30 H          13.1804  -35.1319  -10.1464 H       1  LIG1        0.1500
     31 H          17.2147  -32.3642   -8.3834 H       1  LIG1        0.1500
     32 H          18.0484  -30.1044   -8.8842 H       1  LIG1        0.1500
     33 H          17.1479  -28.8654  -10.7985 H       1  LIG1        0.1500
     34 H          15.4155  -29.8683  -12.2140 H       1  LIG1        0.1500
     35 H          14.5845  -32.1325  -11.7183 H       1  LIG1        0.1500
     36 H          16.5174  -38.5488  -13.3854 H       1  LIG1        0.3700
     37 H          14.6584  -39.9732  -15.1051 H       1  LIG1        0.0800
     38 H          16.9102  -38.3485  -16.4239 H       1  LIG1        0.0800
     39 H          15.1638  -38.1385  -16.6750 H       1  LIG1        0.0800
     40 H          16.1490  -39.5410  -18.4529 H       1  LIG1        0.0800
     41 H          14.9890  -40.4980  -17.4590 H       1  LIG1        0.0800
     42 H          17.4139  -42.3728  -15.6274 H       1  LIG1        0.0800
     43 H          15.6727  -42.0278  -15.9328 H       1  LIG1        0.0800
     44 H          16.4572  -41.0358  -13.7879 H       1  LIG1        0.0800
     45 H          17.6985  -40.1138  -14.6623 H       1  LIG1        0.0800
     46 H          17.5680  -41.3753  -19.0788 H       1  LIG1        0.0800
     47 H          16.3480  -42.4772  -18.3284 H       1  LIG1        0.0800
     48 H          18.4082  -42.9207  -16.5859 H       1  LIG1        0.1000
     49 H          18.3099  -43.9682  -19.5110 H       1  LIG1        0.1000
     50 H          19.1673  -44.7643  -18.0801 H       1  LIG1        0.1000
     51 H          20.5939  -42.7738  -17.8195 H       1  LIG1        0.1000
     52 H          19.7424  -41.9797  -19.2573 H       1  LIG1        0.1000
     53 H          17.9129  -40.3848  -16.9696 H       1  LIG1        0.4500
@<TRIPOS>BOND
     1     1     2   ar
     2     1     6   ar
     3     1     7    1
     4     2     3   ar
     5     2    27    1
     6     3     4   ar
     7     3    28    1
     8     4     5   ar
     9     4    14    1
    10     5     6   ar
    11     5    29    1
    12     6    30    1
    13     7     8    1
    14     8     9   ar
    15     8    13   ar
    16     9    10   ar
    17     9    31    1
    18    10    11   ar
    19    10    32    1
    20    11    12   ar
    21    11    33    1
    22    12    13   ar
    23    12    34    1
    24    13    35    1
    25    14    15   am
    26    14    16    2
    27    15    17    1
    28    15    36    1
    29    17    18    1
    30    17    22    1
    31    17    37    1
    32    18    19    1
    33    18    38    1
    34    18    39    1
    35    19    20    1
    36    19    40    1
    37    19    41    1
    38    20    21    1
    39    20    23    1
    40    20    53    1
    41    21    22    1
    42    21    42    1
    43    21    43    1
    44    22    44    1
    45    22    45    1
    46    23    24    1
    47    23    46    1
    48    23    47    1
    49    24    25    1
    50    24    26    1
    51    24    48    1
    52    25    26    1
    53    25    49    1
    54    25    50    1
    55    26    51    1
    56    26    52    1
@<TRIPOS>SUBSTRUCTURE
     1 LIG1        1 TEMP              0 ****  ****    0 ROOT


##########                                Name:     Z757130778.****
##########                        Cluster_Size:                   3
##########                          Grid_Score:          -32.672848
##########                     Grid_vdw_energy:          -33.124950
##########                      Grid_es_energy:            0.452101
##########           Internal_energy_repulsive:           20.068201

@<TRIPOS>MOLECULE
Z757130778.****
 53 56 1 0 0
SMALL
USER_CHARGES
****

@<TRIPOS>ATOM
      1 C          16.7772  -35.8834   -9.3467 C.ar    1  LIG1        0.0830
      2 C          17.8753  -36.1272   -8.5246 C.ar    1  LIG1       -0.1500
      3 C          18.7116  -37.2030   -8.8022 C.ar    1  LIG1       -0.1500
      4 C          18.4625  -38.0367   -9.9064 C.ar    1  LIG1        0.0860
      5 C          17.3386  -37.7859  -10.7076 C.ar    1  LIG1       -0.1500
      6 C          16.4964  -36.7141  -10.4337 C.ar    1  LIG1       -0.1500
      7 O          15.9672  -34.8179   -9.0248 O.3     1  LIG1       -0.1650
      8 C          15.8073  -33.6772   -9.7844 C.ar    1  LIG1        0.0830
      9 C          16.5142  -32.5136   -9.4797 C.ar    1  LIG1       -0.1500
     10 C          16.3272  -31.3804  -10.2659 C.ar    1  LIG1       -0.1500
     11 C          15.4362  -31.4141  -11.3389 C.ar    1  LIG1       -0.1500
     12 C          14.7281  -32.5801  -11.6274 C.ar    1  LIG1       -0.1500
     13 C          14.9101  -33.7171  -10.8470 C.ar    1  LIG1       -0.1500
     14 C          19.3386  -39.1685  -10.2128 C.2     1  LIG1        0.5440
     15 N          19.4170  -39.7256  -11.4526 N.am    1  LIG1       -0.7300
     16 O          20.0419  -39.7211   -9.3868 O.2     1  LIG1       -0.5700
     17 C          20.2704  -40.8447  -11.7950 C.3     1  LIG1        0.2200
     18 C          19.5416  -41.6280  -12.8905 C.3     1  LIG1       -0.1600
     19 C          20.4887  -42.7453  -13.3514 C.3     1  LIG1        0.3430
     20 N          21.6714  -42.0579  -13.9094 N.4     1  LIG1       -0.9590
     21 C          22.4395  -41.4257  -12.8129 C.3     1  LIG1        0.3430
     22 C          21.5787  -40.2519  -12.3288 C.3     1  LIG1       -0.1600
     23 C          22.5202  -43.0636  -14.5615 C.3     1  LIG1        0.4380
     24 C          23.6979  -42.2330  -15.0925 C.3     1  LIG1       -0.1950
     25 C          24.7565  -43.0024  -15.8259 C.3     1  LIG1       -0.2000
     26 C          23.8035  -42.1099  -16.5866 C.3     1  LIG1       -0.2000
     27 H          18.0563  -35.4993   -7.6910 H       1  LIG1        0.1500
     28 H          19.5346  -37.4069   -8.1657 H       1  LIG1        0.1500
     29 H          17.1262  -38.4300  -11.5234 H       1  LIG1        0.1500
     30 H          15.6413  -36.5394  -11.0360 H       1  LIG1        0.1500
     31 H          17.1818  -32.4937   -8.6579 H       1  LIG1        0.1500
     32 H          16.8589  -30.4894  -10.0475 H       1  LIG1        0.1500
     33 H          15.2957  -30.5493  -11.9353 H       1  LIG1        0.1500
     34 H          14.0488  -32.5986  -12.4413 H       1  LIG1        0.1500
     35 H          14.3754  -34.6076  -11.0558 H       1  LIG1        0.1500
     36 H          19.1779  -39.0560  -12.1989 H       1  LIG1        0.3700
     37 H          20.4819  -41.5043  -10.9488 H       1  LIG1        0.0800
     38 H          19.2762  -40.9790  -13.7272 H       1  LIG1        0.0800
     39 H          18.6313  -42.0676  -12.4798 H       1  LIG1        0.0800
     40 H          19.9857  -43.3148  -14.1256 H       1  LIG1        0.0800
     41 H          20.7629  -43.3593  -12.4998 H       1  LIG1        0.0800
     42 H          23.3743  -41.0241  -13.1910 H       1  LIG1        0.0800
     43 H          22.5935  -42.1218  -11.9953 H       1  LIG1        0.0800
     44 H          22.0975  -39.7274  -11.5252 H       1  LIG1        0.0800
     45 H          21.3886  -39.5510  -13.1443 H       1  LIG1        0.0800
     46 H          22.0061  -43.4995  -15.4118 H       1  LIG1        0.0800
     47 H          22.8775  -43.8079  -13.8589 H       1  LIG1        0.0800
     48 H          24.0138  -41.3999  -14.4784 H       1  LIG1        0.1000
     49 H          24.6211  -44.0703  -15.9492 H       1  LIG1        0.1000
     50 H          25.7745  -42.6429  -15.7284 H       1  LIG1        0.1000
     51 H          24.2250  -41.1900  -16.9747 H       1  LIG1        0.1000
     52 H          23.0740  -42.6202  -17.2040 H       1  LIG1        0.1000
     53 H          21.4037  -41.3699  -14.6052 H       1  LIG1        0.4500
@<TRIPOS>BOND
     1     1     2   ar
     2     1     6   ar
     3     1     7    1
     4     2     3   ar
     5     2    27    1
     6     3     4   ar
     7     3    28    1
     8     4     5   ar
     9     4    14    1
    10     5     6   ar
    11     5    29    1
    12     6    30    1
    13     7     8    1
    14     8     9   ar
    15     8    13   ar
    16     9    10   ar
    17     9    31    1
    18    10    11   ar
    19    10    32    1
    20    11    12   ar
    21    11    33    1
    22    12    13   ar
    23    12    34    1
    24    13    35    1
    25    14    15   am
    26    14    16    2
    27    15    17    1
    28    15    36    1
    29    17    18    1
    30    17    22    1
    31    17    37    1
    32    18    19    1
    33    18    38    1
    34    18    39    1
    35    19    20    1
    36    19    40    1
    37    19    41    1
    38    20    21    1
    39    20    23    1
    40    20    53    1
    41    21    22    1
    42    21    42    1
    43    21    43    1
    44    22    44    1
    45    22    45    1
    46    23    24    1
    47    23    46    1
    48    23    47    1
    49    24    25    1
    50    24    26    1
    51    24    48    1
    52    25    26    1
    53    25    49    1
    54    25    50    1
    55    26    51    1
    56    26    52    1
@<TRIPOS>SUBSTRUCTURE
     1 LIG1        1 TEMP              0 ****  ****    0 ROOT


##########                                Name:     Z757130778.****
##########                        Cluster_Size:                   1
##########                          Grid_Score:          -29.356241
##########                     Grid_vdw_energy:          -22.194481
##########                      Grid_es_energy:           -7.161760
##########           Internal_energy_repulsive:           11.147071

@<TRIPOS>MOLECULE
Z757130778.****
 53 56 1 0 0
SMALL
USER_CHARGES
****

@<TRIPOS>ATOM
      1 C          19.1492  -42.0989   -9.7004 C.ar    1  LIG1        0.0830
      2 C          17.9335  -42.3183  -10.3445 C.ar    1  LIG1       -0.1500
      3 C          17.1502  -41.2307  -10.7150 C.ar    1  LIG1       -0.1500
      4 C          17.5789  -39.9177  -10.4530 C.ar    1  LIG1        0.0860
      5 C          18.7958  -39.7208   -9.7835 C.ar    1  LIG1       -0.1500
      6 C          19.5824  -40.8039   -9.4072 C.ar    1  LIG1       -0.1500
      7 O          19.8838  -43.2049   -9.3369 O.3     1  LIG1       -0.1650
      8 C          21.1027  -43.5665   -9.8731 C.ar    1  LIG1        0.0830
      9 C          22.1994  -43.8132   -9.0468 C.ar    1  LIG1       -0.1500
     10 C          23.4147  -44.1741   -9.6216 C.ar    1  LIG1       -0.1500
     11 C          23.5278  -44.2780  -11.0082 C.ar    1  LIG1       -0.1500
     12 C          22.4271  -44.0193  -11.8240 C.ar    1  LIG1       -0.1500
     13 C          21.2089  -43.6590  -11.2573 C.ar    1  LIG1       -0.1500
     14 C          16.7665  -38.7645  -10.8434 C.2     1  LIG1        0.5440
     15 N          17.0104  -37.5037  -10.3907 N.am    1  LIG1       -0.7300
     16 O          15.7959  -38.8385  -11.5745 O.2     1  LIG1       -0.5700
     17 C          16.2304  -36.3384  -10.7533 C.3     1  LIG1        0.2200
     18 C          16.8012  -35.1662   -9.9503 C.3     1  LIG1       -0.1600
     19 C          16.0670  -33.9007  -10.4164 C.3     1  LIG1        0.3430
     20 N          16.3987  -33.7543  -11.8486 N.4     1  LIG1       -0.9590
     21 C          15.7202  -34.8167  -12.6249 C.3     1  LIG1        0.3430
     22 C          16.4384  -36.1210  -12.2558 C.3     1  LIG1       -0.1600
     23 C          15.9030  -32.4483  -12.3022 C.3     1  LIG1        0.4380
     24 C          16.7345  -31.4552  -11.4768 C.3     1  LIG1       -0.1950
     25 C          16.3523  -30.0117  -11.6207 C.3     1  LIG1       -0.2000
     26 C          16.0173  -30.7621  -10.3526 C.3     1  LIG1       -0.2000
     27 H          17.6124  -43.3094  -10.5356 H       1  LIG1        0.1500
     28 H          16.2133  -41.3931  -11.1839 H       1  LIG1        0.1500
     29 H          19.1103  -38.7341   -9.5536 H       1  LIG1        0.1500
     30 H          20.4944  -40.6472   -8.8893 H       1  LIG1        0.1500
     31 H          22.1074  -43.7233   -7.9957 H       1  LIG1        0.1500
     32 H          24.2563  -44.3665   -9.0062 H       1  LIG1        0.1500
     33 H          24.4547  -44.5525  -11.4427 H       1  LIG1        0.1500
     34 H          22.5201  -44.0953  -12.8776 H       1  LIG1        0.1500
     35 H          20.3667  -43.4578  -11.8679 H       1  LIG1        0.1500
     36 H          18.0000  -37.3621  -10.1399 H       1  LIG1        0.3700
     37 H          15.1633  -36.4464  -10.5400 H       1  LIG1        0.0800
     38 H          17.8768  -35.0676  -10.1093 H       1  LIG1        0.0800
     39 H          16.6130  -35.3266   -8.8876 H       1  LIG1        0.0800
     40 H          16.4559  -33.0591   -9.8532 H       1  LIG1        0.0800
     41 H          14.9989  -34.0320  -10.2772 H       1  LIG1        0.0800
     42 H          15.8532  -34.6487  -13.6889 H       1  LIG1        0.0800
     43 H          14.6736  -34.8904  -12.3494 H       1  LIG1        0.0800
     44 H          15.9956  -36.9496  -12.8102 H       1  LIG1        0.0800
     45 H          17.5009  -36.0588  -12.5004 H       1  LIG1        0.0800
     46 H          14.8606  -32.3227  -12.0284 H       1  LIG1        0.0800
     47 H          16.0819  -32.2933  -13.3601 H       1  LIG1        0.0800
     48 H          17.7841  -31.6898  -11.3578 H       1  LIG1        0.1000
     49 H          15.5207  -29.7640  -12.2696 H       1  LIG1        0.1000
     50 H          17.1551  -29.2867  -11.5501 H       1  LIG1        0.1000
     51 H          16.6062  -30.5032   -9.4804 H       1  LIG1        0.1000
     52 H          14.9664  -30.9740  -10.1962 H       1  LIG1        0.1000
     53 H          17.4016  -33.7823  -11.9993 H       1  LIG1        0.4500
@<TRIPOS>BOND
     1     1     2   ar
     2     1     6   ar
     3     1     7    1
     4     2     3   ar
     5     2    27    1
     6     3     4   ar
     7     3    28    1
     8     4     5   ar
     9     4    14    1
    10     5     6   ar
    11     5    29    1
    12     6    30    1
    13     7     8    1
    14     8     9   ar
    15     8    13   ar
    16     9    10   ar
    17     9    31    1
    18    10    11   ar
    19    10    32    1
    20    11    12   ar
    21    11    33    1
    22    12    13   ar
    23    12    34    1
    24    13    35    1
    25    14    15   am
    26    14    16    2
    27    15    17    1
    28    15    36    1
    29    17    18    1
    30    17    22    1
    31    17    37    1
    32    18    19    1
    33    18    38    1
    34    18    39    1
    35    19    20    1
    36    19    40    1
    37    19    41    1
    38    20    21    1
    39    20    23    1
    40    20    53    1
    41    21    22    1
    42    21    42    1
    43    21    43    1
    44    22    44    1
    45    22    45    1
    46    23    24    1
    47    23    46    1
    48    23    47    1
    49    24    25    1
    50    24    26    1
    51    24    48    1
    52    25    26    1
    53    25    49    1
    54    25    50    1
    55    26    51    1
    56    26    52    1
@<TRIPOS>SUBSTRUCTURE
     1 LIG1        1 TEMP              0 ****  ****    0 ROOT


##########                                Name:PV-001799426692.****
##########                        Cluster_Size:                   7
##########                          Grid_Score:          -47.692223
##########                     Grid_vdw_energy:          -31.882864
##########                      Grid_es_energy:          -15.809361
##########           Internal_energy_repulsive:            9.271236

@<TRIPOS>MOLECULE
PV-001799426692.****
 55 58 1 0 0
SMALL
USER_CHARGES
****

@<TRIPOS>ATOM
      1 C          22.3738  -40.6118  -11.4725 C.ar    1  LIG1       -0.1500
      2 C          21.1020  -40.5560  -10.9149 C.ar    1  LIG1       -0.1500
      3 C          20.3482  -39.3745  -10.9622 C.ar    1  LIG1        0.0860
      4 C          20.9160  -38.2447  -11.5752 C.ar    1  LIG1       -0.1500
      5 C          22.1872  -38.3056  -12.1332 C.ar    1  LIG1       -0.1500
      6 C          22.9321  -39.4894  -12.0914 C.ar    1  LIG1        0.0000
      7 C          24.2665  -39.5495  -12.6802 C.ar    1  LIG1        0.0000
      8 C          19.0036  -39.3451  -10.3732 C.2     1  LIG1        0.5440
      9 N          18.2373  -38.2093  -10.4695 N.am    1  LIG1       -0.7300
     10 O          18.5025  -40.2958   -9.7890 O.2     1  LIG1       -0.5700
     11 C          16.8734  -38.1278   -9.8920 C.3     1  LIG1        0.2200
     12 C          16.7526  -36.9303   -8.9289 C.3     1  LIG1        0.3430
     13 N          16.7799  -35.8215   -9.8864 N.4     1  LIG1       -0.9590
     14 C          15.7923  -36.1890  -10.9105 C.3     1  LIG1        0.3430
     15 C          15.9327  -37.7198  -11.0307 C.3     1  LIG1       -0.1600
     16 C          16.4053  -34.5680   -9.2074 C.3     1  LIG1        0.3430
     17 C          16.4161  -33.4749  -10.2951 C.3     1  LIG1       -0.0800
     18 C          15.0693  -33.3480  -11.0193 C.3     1  LIG1       -0.1600
     19 C          15.0743  -31.9200  -11.5712 C.3     1  LIG1       -0.1600
     20 C          16.0873  -31.1381  -10.7268 C.3     1  LIG1       -0.1600
     21 C          16.5479  -32.1025   -9.6336 C.3     1  LIG1       -0.1600
     22 C          24.5931  -40.5494  -13.6034 C.ar    1  LIG1       -0.1500
     23 C          25.8643  -40.6061  -14.1656 C.ar    1  LIG1       -0.1500
     24 C          26.8252  -39.6633  -13.8120 C.ar    1  LIG1       -0.1500
     25 C          26.5133  -38.6653  -12.8942 C.ar    1  LIG1       -0.1500
     26 C          25.2431  -38.6083  -12.3311 C.ar    1  LIG1       -0.1500
     27 H          22.9313  -41.5126  -11.4241 H       1  LIG1        0.1500
     28 H          20.6970  -41.4177  -10.4476 H       1  LIG1        0.1500
     29 H          20.3846  -37.3304  -11.6135 H       1  LIG1        0.1500
     30 H          22.6020  -37.4479  -12.6004 H       1  LIG1        0.1500
     31 H          18.4289  -37.6189  -11.2918 H       1  LIG1        0.3700
     32 H          16.5628  -39.0720   -9.4374 H       1  LIG1        0.0800
     33 H          17.5909  -36.8923   -8.2446 H       1  LIG1        0.0800
     34 H          15.7934  -36.9817   -8.4282 H       1  LIG1        0.0800
     35 H          16.0260  -35.7192  -11.8598 H       1  LIG1        0.0800
     36 H          14.7905  -35.9621  -10.5633 H       1  LIG1        0.0800
     37 H          14.9529  -38.1773  -10.8861 H       1  LIG1        0.0800
     38 H          16.3220  -38.0052  -12.0091 H       1  LIG1        0.0800
     39 H          17.1608  -34.3017   -8.4758 H       1  LIG1        0.0800
     40 H          15.4156  -34.6336   -8.7713 H       1  LIG1        0.0800
     41 H          17.2249  -33.6010  -11.0192 H       1  LIG1        0.0800
     42 H          14.2439  -33.4486  -10.3117 H       1  LIG1        0.0800
     43 H          14.9685  -34.0741  -11.8276 H       1  LIG1        0.0800
     44 H          14.0790  -31.4761  -11.4951 H       1  LIG1        0.0800
     45 H          15.3933  -31.9183  -12.6157 H       1  LIG1        0.0800
     46 H          15.6373  -30.2423  -10.2941 H       1  LIG1        0.0800
     47 H          16.9385  -30.8532  -11.3498 H       1  LIG1        0.0800
     48 H          17.5753  -31.8923   -9.3288 H       1  LIG1        0.0800
     49 H          15.8757  -32.0192   -8.7761 H       1  LIG1        0.0800
     50 H          23.8645  -41.2662  -13.8806 H       1  LIG1        0.1500
     51 H          26.1024  -41.3661  -14.8653 H       1  LIG1        0.1500
     52 H          27.7944  -39.7063  -14.2408 H       1  LIG1        0.1500
     53 H          27.2459  -37.9482  -12.6236 H       1  LIG1        0.1500
     54 H          25.0128  -37.8503  -11.6280 H       1  LIG1        0.1500
     55 H          17.7147  -35.7734  -10.2813 H       1  LIG1        0.4500
@<TRIPOS>BOND
     1     1     2   ar
     2     1     6   ar
     3     1    27    1
     4     2     3   ar
     5     2    28    1
     6     3     4   ar
     7     3     8    1
     8     4     5   ar
     9     4    29    1
    10     5     6   ar
    11     5    30    1
    12     6     7    1
    13     7    22   ar
    14     7    26   ar
    15     8     9   am
    16     8    10    2
    17     9    11    1
    18     9    31    1
    19    11    12    1
    20    11    15    1
    21    11    32    1
    22    12    13    1
    23    12    33    1
    24    12    34    1
    25    13    14    1
    26    13    16    1
    27    13    55    1
    28    14    15    1
    29    14    35    1
    30    14    36    1
    31    15    37    1
    32    15    38    1
    33    16    17    1
    34    16    39    1
    35    16    40    1
    36    17    18    1
    37    17    21    1
    38    17    41    1
    39    18    19    1
    40    18    42    1
    41    18    43    1
    42    19    20    1
    43    19    44    1
    44    19    45    1
    45    20    21    1
    46    20    46    1
    47    20    47    1
    48    21    48    1
    49    21    49    1
    50    22    23   ar
    51    22    50    1
    52    23    24   ar
    53    23    51    1
    54    24    25   ar
    55    24    52    1
    56    25    26   ar
    57    25    53    1
    58    26    54    1
@<TRIPOS>SUBSTRUCTURE
     1 LIG1        1 TEMP              0 ****  ****    0 ROOT


##########                                Name:PV-001799426692.****
##########                        Cluster_Size:                   1
##########                          Grid_Score:          -43.642136
##########                     Grid_vdw_energy:          -30.925608
##########                      Grid_es_energy:          -12.716529
##########           Internal_energy_repulsive:           11.744791

@<TRIPOS>MOLECULE
PV-001799426692.****
 55 58 1 0 0
SMALL
USER_CHARGES
****

@<TRIPOS>ATOM
      1 C          19.9973  -37.8775  -11.2269 C.ar    1  LIG1       -0.1500
      2 C          18.9217  -37.0031  -11.3279 C.ar    1  LIG1       -0.1500
      3 C          18.7291  -36.2318  -12.4831 C.ar    1  LIG1        0.0860
      4 C          19.6581  -36.3548  -13.5302 C.ar    1  LIG1       -0.1500
      5 C          20.7310  -37.2317  -13.4257 C.ar    1  LIG1       -0.1500
      6 C          20.9141  -38.0060  -12.2746 C.ar    1  LIG1        0.0000
      7 C          22.0416  -38.9271  -12.1696 C.ar    1  LIG1        0.0000
      8 C          17.5795  -35.3224  -12.5675 C.2     1  LIG1        0.5440
      9 N          16.5828  -35.3876  -11.6248 N.am    1  LIG1       -0.7300
     10 O          17.4486  -34.4810  -13.4456 O.2     1  LIG1       -0.5700
     11 C          15.4009  -34.4920  -11.6646 C.3     1  LIG1        0.2200
     12 C          14.3440  -35.0170  -12.6563 C.3     1  LIG1        0.3430
     13 N          13.8555  -36.1871  -11.9220 N.4     1  LIG1       -0.9590
     14 C          13.5745  -35.6874  -10.5691 C.3     1  LIG1        0.3430
     15 C          14.6826  -34.6446  -10.3197 C.3     1  LIG1       -0.1600
     16 C          12.6345  -36.7047  -12.5654 C.3     1  LIG1        0.3430
     17 C          13.0153  -38.0750  -13.1613 C.3     1  LIG1       -0.0800
     18 C          14.1689  -37.9819  -14.1687 C.3     1  LIG1       -0.1600
     19 C          14.7746  -39.3880  -14.1750 C.3     1  LIG1       -0.1600
     20 C          14.3553  -40.0408  -12.8527 C.3     1  LIG1       -0.1600
     21 C          13.6237  -38.9525  -12.0667 C.3     1  LIG1       -0.1600
     22 C          21.8351  -40.2701  -11.8338 C.ar    1  LIG1       -0.1500
     23 C          22.9094  -41.1483  -11.7349 C.ar    1  LIG1       -0.1500
     24 C          24.2039  -40.6950  -11.9708 C.ar    1  LIG1       -0.1500
     25 C          24.4225  -39.3619  -12.3038 C.ar    1  LIG1       -0.1500
     26 C          23.3493  -38.4831  -12.4022 C.ar    1  LIG1       -0.1500
     27 H          20.1297  -38.4502  -10.3443 H       1  LIG1        0.1500
     28 H          18.2385  -36.9183  -10.5211 H       1  LIG1        0.1500
     29 H          19.5559  -35.7752  -14.4097 H       1  LIG1        0.1500
     30 H          21.4214  -37.3216  -14.2265 H       1  LIG1        0.1500
     31 H          16.8773  -35.7259  -10.6973 H       1  LIG1        0.3700
     32 H          15.6798  -33.4519  -11.8517 H       1  LIG1        0.0800
     33 H          14.7964  -35.2939  -13.6003 H       1  LIG1        0.0800
     34 H          13.5626  -34.2738  -12.7579 H       1  LIG1        0.0800
     35 H          13.6457  -36.4863   -9.8389 H       1  LIG1        0.0800
     36 H          12.6157  -35.1815  -10.5482 H       1  LIG1        0.0800
     37 H          14.2202  -33.6983  -10.0352 H       1  LIG1        0.0800
     38 H          15.3579  -34.9678   -9.5261 H       1  LIG1        0.0800
     39 H          12.3492  -36.0622  -13.3918 H       1  LIG1        0.0800
     40 H          11.8323  -36.8330  -11.8485 H       1  LIG1        0.0800
     41 H          12.1653  -38.5982  -13.6065 H       1  LIG1        0.0800
     42 H          14.9246  -37.2751  -13.8200 H       1  LIG1        0.0800
     43 H          13.8212  -37.7066  -15.1657 H       1  LIG1        0.0800
     44 H          15.8628  -39.3363  -14.2558 H       1  LIG1        0.0800
     45 H          14.3760  -39.9687  -15.0097 H       1  LIG1        0.0800
     46 H          15.2212  -40.4088  -12.2985 H       1  LIG1        0.0800
     47 H          13.6737  -40.8704  -13.0557 H       1  LIG1        0.0800
     48 H          12.8599  -39.3820  -11.4149 H       1  LIG1        0.0800
     49 H          14.3495  -38.3882  -11.4760 H       1  LIG1        0.0800
     50 H          20.8518  -40.6221  -11.6586 H       1  LIG1        0.1500
     51 H          22.7434  -42.1643  -11.4816 H       1  LIG1        0.1500
     52 H          25.0231  -41.3647  -11.8957 H       1  LIG1        0.1500
     53 H          25.4088  -39.0163  -12.4819 H       1  LIG1        0.1500
     54 H          23.5218  -37.4677  -12.6497 H       1  LIG1        0.1500
     55 H          14.5988  -36.8795  -11.9084 H       1  LIG1        0.4500
@<TRIPOS>BOND
     1     1     2   ar
     2     1     6   ar
     3     1    27    1
     4     2     3   ar
     5     2    28    1
     6     3     4   ar
     7     3     8    1
     8     4     5   ar
     9     4    29    1
    10     5     6   ar
    11     5    30    1
    12     6     7    1
    13     7    22   ar
    14     7    26   ar
    15     8     9   am
    16     8    10    2
    17     9    11    1
    18     9    31    1
    19    11    12    1
    20    11    15    1
    21    11    32    1
    22    12    13    1
    23    12    33    1
    24    12    34    1
    25    13    14    1
    26    13    16    1
    27    13    55    1
    28    14    15    1
    29    14    35    1
    30    14    36    1
    31    15    37    1
    32    15    38    1
    33    16    17    1
    34    16    39    1
    35    16    40    1
    36    17    18    1
    37    17    21    1
    38    17    41    1
    39    18    19    1
    40    18    42    1
    41    18    43    1
    42    19    20    1
    43    19    44    1
    44    19    45    1
    45    20    21    1
    46    20    46    1
    47    20    47    1
    48    21    48    1
    49    21    49    1
    50    22    23   ar
    51    22    50    1
    52    23    24   ar
    53    23    51    1
    54    24    25   ar
    55    24    52    1
    56    25    26   ar
    57    25    53    1
    58    26    54    1
@<TRIPOS>SUBSTRUCTURE
     1 LIG1        1 TEMP              0 ****  ****    0 ROOT


##########                                Name:PV-001799426692.****
##########                        Cluster_Size:                   1
##########                          Grid_Score:          -43.408173
##########                     Grid_vdw_energy:          -32.319637
##########                      Grid_es_energy:          -11.088534
##########           Internal_energy_repulsive:            5.155316

@<TRIPOS>MOLECULE
PV-001799426692.****
 55 58 1 0 0
SMALL
USER_CHARGES
****

@<TRIPOS>ATOM
      1 C          20.0473  -38.7944  -12.5714 C.ar    1  LIG1       -0.1500
      2 C          18.7105  -38.5075  -12.3219 C.ar    1  LIG1       -0.1500
      3 C          18.1200  -38.8461  -11.0959 C.ar    1  LIG1        0.0860
      4 C          18.9097  -39.4949  -10.1314 C.ar    1  LIG1       -0.1500
      5 C          20.2464  -39.7781  -10.3845 C.ar    1  LIG1       -0.1500
      6 C          20.8336  -39.4302  -11.6061 C.ar    1  LIG1        0.0000
      7 C          22.2386  -39.7280  -11.8672 C.ar    1  LIG1        0.0000
      8 C          16.7081  -38.5237  -10.8546 C.2     1  LIG1        0.5440
      9 N          16.0014  -37.7999  -11.7836 N.am    1  LIG1       -0.7300
     10 O          16.0988  -38.8718   -9.8527 O.2     1  LIG1       -0.5700
     11 C          14.5737  -37.4478  -11.5882 C.3     1  LIG1        0.2200
     12 C          14.4025  -36.4734  -10.4061 C.3     1  LIG1        0.3430
     13 N          14.9734  -35.2554  -10.9871 N.4     1  LIG1       -0.9590
     14 C          14.3182  -35.1243  -12.2959 C.3     1  LIG1        0.3430
     15 C          14.1630  -36.5794  -12.7820 C.3     1  LIG1       -0.1600
     16 C          14.6724  -34.1018  -10.1203 C.3     1  LIG1        0.3430
     17 C          15.5188  -32.9313  -10.6600 C.3     1  LIG1       -0.0800
     18 C          14.6706  -31.8618  -11.3608 C.3     1  LIG1       -0.1600
     19 C          15.5234  -30.5932  -11.2763 C.3     1  LIG1       -0.1600
     20 C          16.5023  -30.8117  -10.1168 C.3     1  LIG1       -0.1600
     21 C          16.1067  -32.1471   -9.4863 C.3     1  LIG1       -0.1600
     22 C          23.1116  -38.7224  -12.2978 C.ar    1  LIG1       -0.1500
     23 C          24.4508  -39.0058  -12.5455 C.ar    1  LIG1       -0.1500
     24 C          24.9344  -40.2984  -12.3656 C.ar    1  LIG1       -0.1500
     25 C          24.0762  -41.3072  -11.9395 C.ar    1  LIG1       -0.1500
     26 C          22.7371  -41.0251  -11.6923 C.ar    1  LIG1       -0.1500
     27 H          20.4764  -38.5347  -13.5058 H       1  LIG1        0.1500
     28 H          18.1301  -38.0268  -13.0681 H       1  LIG1        0.1500
     29 H          18.4938  -39.7825   -9.2018 H       1  LIG1        0.1500
     30 H          20.8345  -40.2612   -9.6452 H       1  LIG1        0.1500
     31 H          16.3256  -37.8991  -12.7565 H       1  LIG1        0.3700
     32 H          13.9400  -38.3343  -11.5035 H       1  LIG1        0.0800
     33 H          14.9608  -36.8066   -9.5402 H       1  LIG1        0.0800
     34 H          13.3448  -36.3462  -10.2103 H       1  LIG1        0.0800
     35 H          14.9415  -34.5668  -12.9866 H       1  LIG1        0.0800
     36 H          13.3299  -34.6941  -12.1786 H       1  LIG1        0.0800
     37 H          13.1162  -36.7595  -13.0306 H       1  LIG1        0.0800
     38 H          14.7795  -36.7699  -13.6616 H       1  LIG1        0.0800
     39 H          15.0067  -34.3009   -9.1076 H       1  LIG1        0.0800
     40 H          13.6224  -33.8376  -10.1622 H       1  LIG1        0.0800
     41 H          16.3317  -33.2579  -11.3136 H       1  LIG1        0.0800
     42 H          13.7387  -31.6961  -10.8164 H       1  LIG1        0.0800
     43 H          14.4634  -32.1194  -12.4007 H       1  LIG1        0.0800
     44 H          14.8935  -29.7193  -11.0946 H       1  LIG1        0.0800
     45 H          16.0834  -30.4504  -12.2030 H       1  LIG1        0.0800
     46 H          16.4421  -30.0015   -9.3872 H       1  LIG1        0.0800
     47 H          17.5210  -30.8754  -10.5068 H       1  LIG1        0.0800
     48 H          16.9728  -32.6502   -9.0509 H       1  LIG1        0.0800
     49 H          15.3485  -31.9704   -8.7195 H       1  LIG1        0.0800
     50 H          22.7508  -37.7357  -12.4311 H       1  LIG1        0.1500
     51 H          25.1053  -38.2375  -12.8699 H       1  LIG1        0.1500
     52 H          25.9555  -40.5146  -12.5542 H       1  LIG1        0.1500
     53 H          24.4442  -42.2923  -11.8040 H       1  LIG1        0.1500
     54 H          22.0866  -41.7981  -11.3742 H       1  LIG1        0.1500
     55 H          15.9735  -35.3991  -11.0924 H       1  LIG1        0.4500
@<TRIPOS>BOND
     1     1     2   ar
     2     1     6   ar
     3     1    27    1
     4     2     3   ar
     5     2    28    1
     6     3     4   ar
     7     3     8    1
     8     4     5   ar
     9     4    29    1
    10     5     6   ar
    11     5    30    1
    12     6     7    1
    13     7    22   ar
    14     7    26   ar
    15     8     9   am
    16     8    10    2
    17     9    11    1
    18     9    31    1
    19    11    12    1
    20    11    15    1
    21    11    32    1
    22    12    13    1
    23    12    33    1
    24    12    34    1
    25    13    14    1
    26    13    16    1
    27    13    55    1
    28    14    15    1
    29    14    35    1
    30    14    36    1
    31    15    37    1
    32    15    38    1
    33    16    17    1
    34    16    39    1
    35    16    40    1
    36    17    18    1
    37    17    21    1
    38    17    41    1
    39    18    19    1
    40    18    42    1
    41    18    43    1
    42    19    20    1
    43    19    44    1
    44    19    45    1
    45    20    21    1
    46    20    46    1
    47    20    47    1
    48    21    48    1
    49    21    49    1
    50    22    23   ar
    51    22    50    1
    52    23    24   ar
    53    23    51    1
    54    24    25   ar
    55    24    52    1
    56    25    26   ar
    57    25    53    1
    58    26    54    1
@<TRIPOS>SUBSTRUCTURE
     1 LIG1        1 TEMP              0 ****  ****    0 ROOT


##########                                Name:PV-001799426692.****
##########                        Cluster_Size:                   1
##########                          Grid_Score:          -41.981461
##########                     Grid_vdw_energy:          -27.257877
##########                      Grid_es_energy:          -14.723583
##########           Internal_energy_repulsive:           12.632044

@<TRIPOS>MOLECULE
PV-001799426692.****
 55 58 1 0 0
SMALL
USER_CHARGES
****

@<TRIPOS>ATOM
      1 C          17.2352  -40.0817  -15.0587 C.ar    1  LIG1       -0.1500
      2 C          16.3443  -39.1574  -14.5261 C.ar    1  LIG1       -0.1500
      3 C          15.1985  -38.7722  -15.2370 C.ar    1  LIG1        0.0860
      4 C          14.9808  -39.3335  -16.5067 C.ar    1  LIG1       -0.1500
      5 C          15.8733  -40.2588  -17.0345 C.ar    1  LIG1       -0.1500
      6 C          17.0106  -40.6468  -16.3175 C.ar    1  LIG1        0.0000
      7 C          17.9447  -41.6203  -16.8749 C.ar    1  LIG1        0.0000
      8 C          14.2689  -37.8006  -14.6476 C.2     1  LIG1        0.5440
      9 N          14.5604  -37.2190  -13.4380 N.am    1  LIG1       -0.7300
     10 O          13.2221  -37.4599  -15.1809 O.2     1  LIG1       -0.5700
     11 C          13.6554  -36.2321  -12.7998 C.3     1  LIG1        0.2200
     12 C          13.6256  -36.4193  -11.2700 C.3     1  LIG1        0.3430
     13 N          14.9609  -35.9271  -10.9208 N.4     1  LIG1       -0.9590
     14 C          15.0759  -34.6372  -11.6151 C.3     1  LIG1        0.3430
     15 C          14.3231  -34.8602  -12.9422 C.3     1  LIG1       -0.1600
     16 C          15.0633  -35.7593   -9.4600 C.3     1  LIG1        0.3430
     17 C          16.4051  -36.3997   -9.0509 C.3     1  LIG1       -0.0800
     18 C          16.5880  -37.8094   -9.6285 C.3     1  LIG1       -0.1600
     19 C          18.1052  -38.0142   -9.6422 C.3     1  LIG1       -0.1600
     20 C          18.7267  -36.6130   -9.6164 C.3     1  LIG1       -0.1600
     21 C          17.5536  -35.6373   -9.7126 C.3     1  LIG1       -0.1600
     22 C          18.3162  -42.7521  -16.1403 C.ar    1  LIG1       -0.1500
     23 C          19.2055  -43.6806  -16.6719 C.ar    1  LIG1       -0.1500
     24 C          19.7343  -43.4893  -17.9449 C.ar    1  LIG1       -0.1500
     25 C          19.3740  -42.3673  -18.6846 C.ar    1  LIG1       -0.1500
     26 C          18.4857  -41.4382  -18.1538 C.ar    1  LIG1       -0.1500
     27 H          18.0986  -40.3585  -14.5088 H       1  LIG1        0.1500
     28 H          16.5337  -38.7383  -13.5705 H       1  LIG1        0.1500
     29 H          14.1370  -39.0530  -17.0805 H       1  LIG1        0.1500
     30 H          15.6938  -40.6816  -17.9910 H       1  LIG1        0.1500
     31 H          15.5643  -37.1354  -13.2217 H       1  LIG1        0.3700
     32 H          12.6587  -36.2387  -13.2483 H       1  LIG1        0.0800
     33 H          13.4987  -37.4617  -11.0056 H       1  LIG1        0.0800
     34 H          12.8588  -35.7762  -10.8555 H       1  LIG1        0.0800
     35 H          16.1146  -34.3959  -11.8138 H       1  LIG1        0.0800
     36 H          14.5631  -33.8632  -11.0551 H       1  LIG1        0.0800
     37 H          13.5626  -34.0858  -13.0519 H       1  LIG1        0.0800
     38 H          15.0034  -34.8194  -13.7940 H       1  LIG1        0.0800
     39 H          14.2757  -36.3182   -8.9657 H       1  LIG1        0.0800
     40 H          15.0626  -34.7126   -9.1800 H       1  LIG1        0.0800
     41 H          16.5608  -36.4108   -7.9692 H       1  LIG1        0.0800
     42 H          16.2180  -37.8528  -10.6548 H       1  LIG1        0.0800
     43 H          16.1011  -38.5698   -9.0158 H       1  LIG1        0.0800
     44 H          18.4103  -38.5590  -10.5386 H       1  LIG1        0.0800
     45 H          18.4209  -38.5685   -8.7558 H       1  LIG1        0.0800
     46 H          19.4227  -36.4711  -10.4458 H       1  LIG1        0.0800
     47 H          19.2528  -36.4650   -8.6703 H       1  LIG1        0.0800
     48 H          17.7750  -34.7013   -9.1953 H       1  LIG1        0.0800
     49 H          17.3345  -35.4434  -10.7655 H       1  LIG1        0.0800
     50 H          17.9128  -42.9060  -15.1733 H       1  LIG1        0.1500
     51 H          19.4801  -44.5359  -16.1088 H       1  LIG1        0.1500
     52 H          20.4121  -44.1972  -18.3504 H       1  LIG1        0.1500
     53 H          19.7782  -42.2207  -19.6537 H       1  LIG1        0.1500
     54 H          18.2197  -40.5825  -18.7184 H       1  LIG1        0.1500
     55 H          15.6412  -36.5938  -11.2739 H       1  LIG1        0.4500
@<TRIPOS>BOND
     1     1     2   ar
     2     1     6   ar
     3     1    27    1
     4     2     3   ar
     5     2    28    1
     6     3     4   ar
     7     3     8    1
     8     4     5   ar
     9     4    29    1
    10     5     6   ar
    11     5    30    1
    12     6     7    1
    13     7    22   ar
    14     7    26   ar
    15     8     9   am
    16     8    10    2
    17     9    11    1
    18     9    31    1
    19    11    12    1
    20    11    15    1
    21    11    32    1
    22    12    13    1
    23    12    33    1
    24    12    34    1
    25    13    14    1
    26    13    16    1
    27    13    55    1
    28    14    15    1
    29    14    35    1
    30    14    36    1
    31    15    37    1
    32    15    38    1
    33    16    17    1
    34    16    39    1
    35    16    40    1
    36    17    18    1
    37    17    21    1
    38    17    41    1
    39    18    19    1
    40    18    42    1
    41    18    43    1
    42    19    20    1
    43    19    44    1
    44    19    45    1
    45    20    21    1
    46    20    46    1
    47    20    47    1
    48    21    48    1
    49    21    49    1
    50    22    23   ar
    51    22    50    1
    52    23    24   ar
    53    23    51    1
    54    24    25   ar
    55    24    52    1
    56    25    26   ar
    57    25    53    1
    58    26    54    1
@<TRIPOS>SUBSTRUCTURE
     1 LIG1        1 TEMP              0 ****  ****    0 ROOT


##########                                Name:PV-001799431004.****
##########                        Cluster_Size:                   2
##########                          Grid_Score:          -40.117729
##########                     Grid_vdw_energy:          -23.940670
##########                      Grid_es_energy:          -16.177061
##########           Internal_energy_repulsive:           17.762804

@<TRIPOS>MOLECULE
PV-001799431004.****
 61 64 1 0 0
SMALL
USER_CHARGES
****

@<TRIPOS>ATOM
      1 N          15.3066  -37.9327  -11.0132 N.am    1  LIG1       -0.7300
      2 C          14.5979  -36.6659  -10.7746 C.3     1  LIG1        0.2200
      3 C          15.3208  -35.8038   -9.7052 C.3     1  LIG1        0.3430
      4 N          15.7564  -34.5982  -10.4518 N.4     1  LIG1       -0.9590
      5 C          14.7689  -34.4163  -11.5119 C.3     1  LIG1        0.3430
      6 C          14.6850  -35.8392  -12.0569 C.3     1  LIG1       -0.1600
      7 C          15.7498  -33.4037   -9.5751 C.3     1  LIG1        0.3430
      8 C          16.4757  -32.2858  -10.3551 C.3     1  LIG1       -0.0800
      9 C          15.5350  -31.5199  -11.2982 C.3     1  LIG1       -0.1600
     10 C          16.2164  -30.1626  -11.4923 C.3     1  LIG1       -0.1600
     11 C          17.1593  -29.9830  -10.2974 C.3     1  LIG1       -0.1600
     12 C          16.8953  -31.1793   -9.3843 C.3     1  LIG1       -0.1600
     13 C          14.8167  -39.0161  -11.6867 C.2     1  LIG1        0.5440
     14 O          13.7135  -38.8562  -12.1698 O.2     1  LIG1       -0.5700
     15 C          15.6266  -40.2196  -11.8549 C.ar    1  LIG1        0.0860
     16 C          16.6436  -40.5316  -10.9374 C.ar    1  LIG1       -0.1500
     17 C          17.5756  -41.5152  -11.2350 C.ar    1  LIG1       -0.1500
     18 C          17.4693  -42.2034  -12.4422 C.ar    1  LIG1        0.0830
     19 C          16.3736  -42.0273  -13.2854 C.ar    1  LIG1       -0.1500
     20 C          15.4522  -41.0304  -12.9870 C.ar    1  LIG1       -0.1500
     21 O          18.5336  -42.9574  -12.8629 O.3     1  LIG1       -0.1650
     22 C          19.6838  -42.2090  -12.9150 C.ar    1  LIG1        0.0830
     23 C          19.5823  -40.8332  -13.1171 C.ar    1  LIG1       -0.1500
     24 C          20.7039  -40.0394  -12.9398 C.ar    1  LIG1       -0.1500
     25 C          21.9333  -40.6063  -12.5648 C.ar    1  LIG1        0.0860
     26 C          22.0369  -42.0088  -12.4832 C.ar    1  LIG1       -0.1500
     27 C          20.9121  -42.8107  -12.6547 C.ar    1  LIG1       -0.1500
     28 C          23.0440  -39.7270  -12.2210 C.2     1  LIG1        0.4230
     29 C          24.4685  -40.2220  -12.1418 C.3     1  LIG1       -0.1790
     30 O          22.8278  -38.5679  -11.9251 O.2     1  LIG1       -0.5700
     31 H          16.2933  -38.0314  -10.7259 H       1  LIG1        0.3700
     32 H          13.5466  -36.8103  -10.5161 H       1  LIG1        0.0800
     33 H          16.1758  -36.3447   -9.3167 H       1  LIG1        0.0800
     34 H          14.5990  -35.5404   -8.9388 H       1  LIG1        0.0800
     35 H          15.1241  -33.7378  -12.2804 H       1  LIG1        0.0800
     36 H          13.8076  -34.1327  -11.0963 H       1  LIG1        0.0800
     37 H          13.8047  -35.9810  -12.6850 H       1  LIG1        0.0800
     38 H          15.5928  -36.0649  -12.6193 H       1  LIG1        0.0800
     39 H          16.2766  -33.5938   -8.6472 H       1  LIG1        0.0800
     40 H          14.7316  -33.0748   -9.4008 H       1  LIG1        0.0800
     41 H          17.3506  -32.6407  -10.9042 H       1  LIG1        0.0800
     42 H          14.5643  -31.3605  -10.8208 H       1  LIG1        0.0800
     43 H          15.4105  -32.0248  -12.2571 H       1  LIG1        0.0800
     44 H          15.4742  -29.3625  -11.5253 H       1  LIG1        0.0800
     45 H          16.7964  -30.1583  -12.4182 H       1  LIG1        0.0800
     46 H          16.9662  -29.0432   -9.7755 H       1  LIG1        0.0800
     47 H          18.1959  -30.0027  -10.6427 H       1  LIG1        0.0800
     48 H          17.7843  -31.4407   -8.8081 H       1  LIG1        0.0800
     49 H          16.0775  -30.9359   -8.7014 H       1  LIG1        0.0800
     50 H          16.7137  -39.9951  -10.0251 H       1  LIG1        0.1500
     51 H          18.3754  -41.7257  -10.5726 H       1  LIG1        0.1500
     52 H          16.2718  -42.6204  -14.1580 H       1  LIG1        0.1500
     53 H          14.6263  -40.8592  -13.6313 H       1  LIG1        0.1500
     54 H          18.6537  -40.4007  -13.3869 H       1  LIG1        0.1500
     55 H          20.6319  -38.9933  -13.0823 H       1  LIG1        0.1500
     56 H          22.9678  -42.4635  -12.2611 H       1  LIG1        0.1500
     57 H          20.9758  -43.8649  -12.5594 H       1  LIG1        0.1500
     58 H          25.1135  -39.3553  -12.1000 H       1  LIG1        0.0800
     59 H          24.5515  -40.8163  -11.2446 H       1  LIG1        0.0800
     60 H          24.6543  -40.8101  -13.0293 H       1  LIG1        0.0800
     61 H          16.6805  -34.7392  -10.8454 H       1  LIG1        0.4500
@<TRIPOS>BOND
     1     1     2    1
     2     1    13   am
     3     1    31    1
     4     2     3    1
     5     2     6    1
     6     2    32    1
     7     3     4    1
     8     3    33    1
     9     3    34    1
    10     4     5    1
    11     4     7    1
    12     4    61    1
    13     5     6    1
    14     5    35    1
    15     5    36    1
    16     6    37    1
    17     6    38    1
    18     7     8    1
    19     7    39    1
    20     7    40    1
    21     8     9    1
    22     8    12    1
    23     8    41    1
    24     9    10    1
    25     9    42    1
    26     9    43    1
    27    10    11    1
    28    10    44    1
    29    10    45    1
    30    11    12    1
    31    11    46    1
    32    11    47    1
    33    12    48    1
    34    12    49    1
    35    13    14    2
    36    13    15    1
    37    15    16   ar
    38    15    20   ar
    39    16    17   ar
    40    16    50    1
    41    17    18   ar
    42    17    51    1
    43    18    19   ar
    44    18    21    1
    45    19    20   ar
    46    19    52    1
    47    20    53    1
    48    21    22    1
    49    22    23   ar
    50    22    27   ar
    51    23    24   ar
    52    23    54    1
    53    24    25   ar
    54    24    55    1
    55    25    26   ar
    56    25    28    1
    57    26    27   ar
    58    26    56    1
    59    27    57    1
    60    28    29    1
    61    28    30    2
    62    29    58    1
    63    29    59    1
    64    29    60    1
@<TRIPOS>SUBSTRUCTURE
     1 LIG1        1 TEMP              0 ****  ****    0 ROOT


##########                                Name:PV-001799431004.****
##########                        Cluster_Size:                   3
##########                          Grid_Score:          -38.841469
##########                     Grid_vdw_energy:          -31.329781
##########                      Grid_es_energy:           -7.511686
##########           Internal_energy_repulsive:           31.607388

@<TRIPOS>MOLECULE
PV-001799431004.****
 61 64 1 0 0
SMALL
USER_CHARGES
****

@<TRIPOS>ATOM
      1 N          15.9705  -38.9284  -11.7914 N.am    1  LIG1       -0.7300
      2 C          14.7898  -38.0663  -11.9547 C.3     1  LIG1        0.2200
      3 C          14.8488  -36.8377  -11.0077 C.3     1  LIG1        0.3430
      4 N          14.9411  -35.6792  -11.9296 N.4     1  LIG1       -0.9590
      5 C          14.2373  -36.0869  -13.1423 C.3     1  LIG1        0.3430
      6 C          14.8440  -37.4700  -13.3606 C.3     1  LIG1       -0.1600
      7 C          14.2655  -34.4923  -11.3547 C.3     1  LIG1        0.3430
      8 C          15.3262  -33.3713  -11.2978 C.3     1  LIG1       -0.0800
      9 C          14.7881  -32.0254  -11.8075 C.3     1  LIG1       -0.1600
     10 C          15.6883  -30.9811  -11.1414 C.3     1  LIG1       -0.1600
     11 C          16.3014  -31.6655   -9.9147 C.3     1  LIG1       -0.1600
     12 C          15.6349  -33.0381   -9.8360 C.3     1  LIG1       -0.1600
     13 C          17.2487  -38.5083  -11.5525 C.2     1  LIG1        0.5440
     14 O          17.3689  -37.3080  -11.4079 O.2     1  LIG1       -0.5700
     15 C          18.3369  -39.4715  -11.4098 C.ar    1  LIG1        0.0860
     16 C          19.5310  -39.1114  -10.7634 C.ar    1  LIG1       -0.1500
     17 C          20.6503  -39.9256  -10.8589 C.ar    1  LIG1       -0.1500
     18 C          20.5615  -41.1141  -11.5811 C.ar    1  LIG1        0.0830
     19 C          19.3442  -41.5697  -12.0844 C.ar    1  LIG1       -0.1500
     20 C          18.2312  -40.7420  -11.9966 C.ar    1  LIG1       -0.1500
     21 O          21.7196  -41.7657  -11.9164 O.3     1  LIG1       -0.1650
     22 C          22.7865  -40.9016  -11.9435 C.ar    1  LIG1        0.0830
     23 C          22.6377  -39.6690  -12.5780 C.ar    1  LIG1       -0.1500
     24 C          23.6156  -38.7015  -12.4132 C.ar    1  LIG1       -0.1500
     25 C          24.7484  -38.9525  -11.6213 C.ar    1  LIG1        0.0860
     26 C          24.9319  -40.2441  -11.0897 C.ar    1  LIG1       -0.1500
     27 C          23.9500  -41.2182  -11.2474 C.ar    1  LIG1       -0.1500
     28 C          25.6672  -37.8587  -11.3313 C.2     1  LIG1        0.4230
     29 C          25.4436  -36.4591  -11.8526 C.3     1  LIG1       -0.1790
     30 O          26.6846  -38.0749  -10.7019 O.2     1  LIG1       -0.5700
     31 H          15.8591  -39.9547  -11.7769 H       1  LIG1        0.3700
     32 H          13.8491  -38.6082  -11.8350 H       1  LIG1        0.0800
     33 H          15.7308  -36.9013  -10.3812 H       1  LIG1        0.0800
     34 H          13.9245  -36.8035  -10.4401 H       1  LIG1        0.0800
     35 H          14.4684  -35.4366  -13.9794 H       1  LIG1        0.0800
     36 H          13.1735  -36.1861  -12.9536 H       1  LIG1        0.0800
     37 H          14.2612  -38.0606  -14.0686 H       1  LIG1        0.0800
     38 H          15.8718  -37.3624  -13.7119 H       1  LIG1        0.0800
     39 H          13.9017  -34.6931  -10.3538 H       1  LIG1        0.0800
     40 H          13.4713  -34.1600  -12.0135 H       1  LIG1        0.0800
     41 H          16.2524  -33.6265  -11.8173 H       1  LIG1        0.0800
     42 H          13.7607  -31.8723  -11.4662 H       1  LIG1        0.0800
     43 H          14.8461  -31.9418  -12.8935 H       1  LIG1        0.0800
     44 H          15.1064  -30.1053  -10.8474 H       1  LIG1        0.0800
     45 H          16.4845  -30.6757  -11.8244 H       1  LIG1        0.0800
     46 H          16.1186  -31.0898   -9.0046 H       1  LIG1        0.0800
     47 H          17.3777  -31.7846  -10.0615 H       1  LIG1        0.0800
     48 H          16.2938  -33.7714   -9.3681 H       1  LIG1        0.0800
     49 H          14.7119  -32.9562   -9.2567 H       1  LIG1        0.0800
     50 H          19.5837  -38.2010  -10.2218 H       1  LIG1        0.1500
     51 H          21.5700  -39.6408  -10.4164 H       1  LIG1        0.1500
     52 H          19.2843  -42.5156  -12.5590 H       1  LIG1        0.1500
     53 H          17.3011  -41.0566  -12.3998 H       1  LIG1        0.1500
     54 H          21.7783  -39.4714  -13.1650 H       1  LIG1        0.1500
     55 H          23.5045  -37.7604  -12.8841 H       1  LIG1        0.1500
     56 H          25.8073  -40.4758  -10.5395 H       1  LIG1        0.1500
     57 H          24.0657  -42.1815  -10.8195 H       1  LIG1        0.1500
     58 H          26.1174  -35.8013  -11.3215 H       1  LIG1        0.0800
     59 H          25.6609  -36.4727  -12.9099 H       1  LIG1        0.0800
     60 H          24.4108  -36.2056  -11.6603 H       1  LIG1        0.0800
     61 H          15.9111  -35.4654  -12.1349 H       1  LIG1        0.4500
@<TRIPOS>BOND
     1     1     2    1
     2     1    13   am
     3     1    31    1
     4     2     3    1
     5     2     6    1
     6     2    32    1
     7     3     4    1
     8     3    33    1
     9     3    34    1
    10     4     5    1
    11     4     7    1
    12     4    61    1
    13     5     6    1
    14     5    35    1
    15     5    36    1
    16     6    37    1
    17     6    38    1
    18     7     8    1
    19     7    39    1
    20     7    40    1
    21     8     9    1
    22     8    12    1
    23     8    41    1
    24     9    10    1
    25     9    42    1
    26     9    43    1
    27    10    11    1
    28    10    44    1
    29    10    45    1
    30    11    12    1
    31    11    46    1
    32    11    47    1
    33    12    48    1
    34    12    49    1
    35    13    14    2
    36    13    15    1
    37    15    16   ar
    38    15    20   ar
    39    16    17   ar
    40    16    50    1
    41    17    18   ar
    42    17    51    1
    43    18    19   ar
    44    18    21    1
    45    19    20   ar
    46    19    52    1
    47    20    53    1
    48    21    22    1
    49    22    23   ar
    50    22    27   ar
    51    23    24   ar
    52    23    54    1
    53    24    25   ar
    54    24    55    1
    55    25    26   ar
    56    25    28    1
    57    26    27   ar
    58    26    56    1
    59    27    57    1
    60    28    29    1
    61    28    30    2
    62    29    58    1
    63    29    59    1
    64    29    60    1
@<TRIPOS>SUBSTRUCTURE
     1 LIG1        1 TEMP              0 ****  ****    0 ROOT


##########                                Name:PV-001799431004.****
##########                        Cluster_Size:                   2
##########                          Grid_Score:          -37.518349
##########                     Grid_vdw_energy:          -37.715179
##########                      Grid_es_energy:            0.196832
##########           Internal_energy_repulsive:           54.011967

@<TRIPOS>MOLECULE
PV-001799431004.****
 61 64 1 0 0
SMALL
USER_CHARGES
****

@<TRIPOS>ATOM
      1 N          22.5089  -40.8914  -11.3125 N.am    1  LIG1       -0.7300
      2 C          23.9136  -40.9688  -11.7427 C.3     1  LIG1        0.2200
      3 C          24.6035  -39.5797  -11.6810 C.3     1  LIG1        0.3430
      4 N          25.6522  -39.7465  -10.6452 N.4     1  LIG1       -0.9590
      5 C          26.0392  -41.1531  -10.7029 C.3     1  LIG1        0.3430
      6 C          24.6649  -41.8163  -10.7168 C.3     1  LIG1       -0.1600
      7 C          26.8343  -38.9070  -10.9513 C.3     1  LIG1        0.3430
      8 C          26.3593  -37.4396  -10.8738 C.3     1  LIG1       -0.0800
      9 C          27.4869  -36.4394  -11.1722 C.3     1  LIG1       -0.1600
     10 C          26.7587  -35.1762  -11.6396 C.3     1  LIG1       -0.1600
     11 C          25.3736  -35.6316  -12.1122 C.3     1  LIG1       -0.1600
     12 C          25.3932  -37.1571  -12.0271 C.3     1  LIG1       -0.1600
     13 C          21.5350  -40.1154  -11.8753 C.2     1  LIG1        0.5440
     14 O          21.8875  -39.4927  -12.8572 O.2     1  LIG1       -0.5700
     15 C          20.1723  -40.1303  -11.3506 C.ar    1  LIG1        0.0860
     16 C          19.1173  -39.5614  -12.0833 C.ar    1  LIG1       -0.1500
     17 C          17.8878  -39.3394  -11.4803 C.ar    1  LIG1       -0.1500
     18 C          17.7106  -39.7138  -10.1497 C.ar    1  LIG1        0.0830
     19 C          18.6865  -40.4311   -9.4601 C.ar    1  LIG1       -0.1500
     20 C          19.9201  -40.6370  -10.0665 C.ar    1  LIG1       -0.1500
     21 O          16.6144  -39.2416   -9.4760 O.3     1  LIG1       -0.1650
     22 C          16.4883  -37.8820   -9.6224 C.ar    1  LIG1        0.0830
     23 C          17.4623  -37.0527   -9.0678 C.ar    1  LIG1       -0.1500
     24 C          17.4763  -35.7084   -9.4028 C.ar    1  LIG1       -0.1500
     25 C          16.5218  -35.1784  -10.2868 C.ar    1  LIG1        0.0860
     26 C          15.4793  -36.0112  -10.7387 C.ar    1  LIG1       -0.1500
     27 C          15.4636  -37.3638  -10.4098 C.ar    1  LIG1       -0.1500
     28 C          16.6698  -33.8040  -10.7493 C.2     1  LIG1        0.4230
     29 C          16.3230  -32.6195   -9.8791 C.3     1  LIG1       -0.1790
     30 O          17.0245  -33.5857  -11.8914 O.2     1  LIG1       -0.5700
     31 H          22.1649  -41.5166  -10.5664 H       1  LIG1        0.3700
     32 H          24.0304  -41.4206  -12.7302 H       1  LIG1        0.0800
     33 H          23.8835  -38.8271  -11.3811 H       1  LIG1        0.0800
     34 H          25.0496  -39.3803  -12.6499 H       1  LIG1        0.0800
     35 H          26.5949  -41.4540   -9.8210 H       1  LIG1        0.0800
     36 H          26.5538  -41.3717  -11.6328 H       1  LIG1        0.0800
     37 H          24.7224  -42.8608  -11.0255 H       1  LIG1        0.0800
     38 H          24.2158  -41.7379   -9.7250 H       1  LIG1        0.0800
     39 H          27.2134  -39.1093  -11.9461 H       1  LIG1        0.0800
     40 H          27.5965  -39.0461  -10.1931 H       1  LIG1        0.0800
     41 H          25.8780  -37.1910   -9.9254 H       1  LIG1        0.0800
     42 H          28.1144  -36.8057  -11.9893 H       1  LIG1        0.0800
     43 H          28.0936  -36.2259  -10.2912 H       1  LIG1        0.0800
     44 H          27.3077  -34.6958  -12.4518 H       1  LIG1        0.0800
     45 H          26.6480  -34.4734  -10.8105 H       1  LIG1        0.0800
     46 H          25.1722  -35.3000  -13.1332 H       1  LIG1        0.0800
     47 H          24.6084  -35.2334  -11.4413 H       1  LIG1        0.0800
     48 H          24.3939  -37.5559  -11.8452 H       1  LIG1        0.0800
     49 H          25.7825  -37.5638  -12.9637 H       1  LIG1        0.0800
     50 H          19.2699  -39.2774  -13.0938 H       1  LIG1        0.1500
     51 H          17.0999  -38.8668  -12.0082 H       1  LIG1        0.1500
     52 H          18.4982  -40.7769   -8.4760 H       1  LIG1        0.1500
     53 H          20.6879  -41.1549   -9.5480 H       1  LIG1        0.1500
     54 H          18.1918  -37.4515   -8.4113 H       1  LIG1        0.1500
     55 H          18.2184  -35.0751   -8.9930 H       1  LIG1        0.1500
     56 H          14.7135  -35.6202  -11.3578 H       1  LIG1        0.1500
     57 H          14.7015  -38.0039  -10.7758 H       1  LIG1        0.1500
     58 H          16.7292  -31.7365  -10.3525 H       1  LIG1        0.0800
     59 H          15.2463  -32.5716   -9.8178 H       1  LIG1        0.0800
     60 H          16.7711  -32.7900   -8.9106 H       1  LIG1        0.0800
     61 H          25.2855  -39.5147   -9.7283 H       1  LIG1        0.4500
@<TRIPOS>BOND
     1     1     2    1
     2     1    13   am
     3     1    31    1
     4     2     3    1
     5     2     6    1
     6     2    32    1
     7     3     4    1
     8     3    33    1
     9     3    34    1
    10     4     5    1
    11     4     7    1
    12     4    61    1
    13     5     6    1
    14     5    35    1
    15     5    36    1
    16     6    37    1
    17     6    38    1
    18     7     8    1
    19     7    39    1
    20     7    40    1
    21     8     9    1
    22     8    12    1
    23     8    41    1
    24     9    10    1
    25     9    42    1
    26     9    43    1
    27    10    11    1
    28    10    44    1
    29    10    45    1
    30    11    12    1
    31    11    46    1
    32    11    47    1
    33    12    48    1
    34    12    49    1
    35    13    14    2
    36    13    15    1
    37    15    16   ar
    38    15    20   ar
    39    16    17   ar
    40    16    50    1
    41    17    18   ar
    42    17    51    1
    43    18    19   ar
    44    18    21    1
    45    19    20   ar
    46    19    52    1
    47    20    53    1
    48    21    22    1
    49    22    23   ar
    50    22    27   ar
    51    23    24   ar
    52    23    54    1
    53    24    25   ar
    54    24    55    1
    55    25    26   ar
    56    25    28    1
    57    26    27   ar
    58    26    56    1
    59    27    57    1
    60    28    29    1
    61    28    30    2
    62    29    58    1
    63    29    59    1
    64    29    60    1
@<TRIPOS>SUBSTRUCTURE
     1 LIG1        1 TEMP              0 ****  ****    0 ROOT


##########                                Name:PV-001799431004.****
##########                        Cluster_Size:                   1
##########                          Grid_Score:          -30.593153
##########                     Grid_vdw_energy:          -33.957073
##########                      Grid_es_energy:            3.363921
##########           Internal_energy_repulsive:           52.805695

@<TRIPOS>MOLECULE
PV-001799431004.****
 61 64 1 0 0
SMALL
USER_CHARGES
****

@<TRIPOS>ATOM
      1 N          20.6556  -41.1535  -11.1328 N.am    1  LIG1       -0.7300
      2 C          21.7347  -42.1101  -11.4235 C.3     1  LIG1        0.2200
      3 C          23.1238  -41.4173  -11.4190 C.3     1  LIG1        0.3430
      4 N          23.8350  -42.0485  -10.2805 N.4     1  LIG1       -0.9590
      5 C          23.2917  -43.4000  -10.1804 C.3     1  LIG1        0.3430
      6 C          21.7972  -43.1026  -10.2633 C.3     1  LIG1       -0.1600
      7 C          25.2902  -42.1311  -10.5479 C.3     1  LIG1        0.3430
      8 C          25.7999  -40.6764  -10.6418 C.3     1  LIG1       -0.0800
      9 C          27.3094  -40.5983  -10.9179 C.3     1  LIG1       -0.1600
     10 C          27.5064  -39.2216  -11.5585 C.3     1  LIG1       -0.1600
     11 C          26.1399  -38.8112  -12.1181 C.3     1  LIG1       -0.1600
     12 C          25.2291  -40.0187  -11.9007 C.3     1  LIG1       -0.1600
     13 C          19.3441  -41.2834  -11.4943 C.2     1  LIG1        0.5440
     14 O          19.0734  -42.3278  -12.0528 O.2     1  LIG1       -0.5700
     15 C          18.3674  -40.2566  -11.1421 C.ar    1  LIG1        0.0860
     16 C          18.7728  -39.0718  -10.5054 C.ar    1  LIG1       -0.1500
     17 C          17.8308  -38.2256   -9.9385 C.ar    1  LIG1       -0.1500
     18 C          16.4805  -38.5565  -10.0350 C.ar    1  LIG1        0.0830
     19 C          16.0495  -39.6346  -10.8062 C.ar    1  LIG1       -0.1500
     20 C          16.9997  -40.4849  -11.3590 C.ar    1  LIG1       -0.1500
     21 O          15.5837  -37.8896   -9.2418 O.3     1  LIG1       -0.1650
     22 C          15.4835  -36.5693   -9.6057 C.ar    1  LIG1        0.0830
     23 C          16.2451  -35.6232   -8.9210 C.ar    1  LIG1       -0.1500
     24 C          16.3333  -34.3348   -9.4226 C.ar    1  LIG1       -0.1500
     25 C          15.6632  -33.9765  -10.6042 C.ar    1  LIG1        0.0860
     26 C          14.8067  -34.9165  -11.2102 C.ar    1  LIG1       -0.1500
     27 C          14.7188  -36.2140  -10.7137 C.ar    1  LIG1       -0.1500
     28 C          15.9159  -32.6673  -11.1933 C.2     1  LIG1        0.4230
     29 C          14.7979  -31.7278  -11.5779 C.3     1  LIG1       -0.1790
     30 O          17.0555  -32.3288  -11.4475 O.2     1  LIG1       -0.5700
     31 H          20.8457  -40.3285  -10.5420 H       1  LIG1        0.3700
     32 H          21.5746  -42.6604  -12.3532 H       1  LIG1        0.0800
     33 H          23.0009  -40.3533  -11.2529 H       1  LIG1        0.0800
     34 H          23.6197  -41.6477  -12.3564 H       1  LIG1        0.0800
     35 H          23.5329  -43.8610   -9.2283 H       1  LIG1        0.0800
     36 H          23.5880  -43.9971  -11.0365 H       1  LIG1        0.0800
     37 H          21.2166  -44.0016  -10.4739 H       1  LIG1        0.0800
     38 H          21.4668  -42.6480   -9.3276 H       1  LIG1        0.0800
     39 H          25.4899  -42.6423  -11.4824 H       1  LIG1        0.0800
     40 H          25.7962  -42.6034   -9.7136 H       1  LIG1        0.0800
     41 H          25.5463  -40.0727   -9.7677 H       1  LIG1        0.0800
     42 H          27.6050  -41.3662  -11.6380 H       1  LIG1        0.0800
     43 H          27.9011  -40.6826  -10.0055 H       1  LIG1        0.0800
     44 H          28.2526  -39.2724  -12.3539 H       1  LIG1        0.0800
     45 H          27.8254  -38.4957  -10.8069 H       1  LIG1        0.0800
     46 H          26.2039  -38.5562  -13.1782 H       1  LIG1        0.0800
     47 H          25.7575  -37.9538  -11.5587 H       1  LIG1        0.0800
     48 H          24.1887  -39.7126  -11.7799 H       1  LIG1        0.0800
     49 H          25.3135  -40.6908  -12.7582 H       1  LIG1        0.0800
     50 H          19.8048  -38.8369  -10.4360 H       1  LIG1        0.1500
     51 H          18.1276  -37.3543   -9.4137 H       1  LIG1        0.1500
     52 H          15.0134  -39.8191  -10.9324 H       1  LIG1        0.1500
     53 H          16.6933  -41.3288  -11.9250 H       1  LIG1        0.1500
     54 H          16.7625  -35.8934   -8.0369 H       1  LIG1        0.1500
     55 H          16.9172  -33.6142   -8.9132 H       1  LIG1        0.1500
     56 H          14.2439  -34.6512  -12.0678 H       1  LIG1        0.1500
     57 H          14.1032  -36.9368  -11.1862 H       1  LIG1        0.1500
     58 H          15.2372  -30.7588  -11.7700 H       1  LIG1        0.0800
     59 H          14.3323  -32.1301  -12.4648 H       1  LIG1        0.0800
     60 H          14.1085  -31.6910  -10.7465 H       1  LIG1        0.0800
     61 H          23.6646  -41.5311   -9.4248 H       1  LIG1        0.4500
@<TRIPOS>BOND
     1     1     2    1
     2     1    13   am
     3     1    31    1
     4     2     3    1
     5     2     6    1
     6     2    32    1
     7     3     4    1
     8     3    33    1
     9     3    34    1
    10     4     5    1
    11     4     7    1
    12     4    61    1
    13     5     6    1
    14     5    35    1
    15     5    36    1
    16     6    37    1
    17     6    38    1
    18     7     8    1
    19     7    39    1
    20     7    40    1
    21     8     9    1
    22     8    12    1
    23     8    41    1
    24     9    10    1
    25     9    42    1
    26     9    43    1
    27    10    11    1
    28    10    44    1
    29    10    45    1
    30    11    12    1
    31    11    46    1
    32    11    47    1
    33    12    48    1
    34    12    49    1
    35    13    14    2
    36    13    15    1
    37    15    16   ar
    38    15    20   ar
    39    16    17   ar
    40    16    50    1
    41    17    18   ar
    42    17    51    1
    43    18    19   ar
    44    18    21    1
    45    19    20   ar
    46    19    52    1
    47    20    53    1
    48    21    22    1
    49    22    23   ar
    50    22    27   ar
    51    23    24   ar
    52    23    54    1
    53    24    25   ar
    54    24    55    1
    55    25    26   ar
    56    25    28    1
    57    26    27   ar
    58    26    56    1
    59    27    57    1
    60    28    29    1
    61    28    30    2
    62    29    58    1
    63    29    59    1
    64    29    60    1
@<TRIPOS>SUBSTRUCTURE
     1 LIG1        1 TEMP              0 ****  ****    0 ROOT


##########                                Name:PV-001799431004.****
##########                        Cluster_Size:                   1
##########                          Grid_Score:           40.270157
##########                     Grid_vdw_energy:           52.360180
##########                      Grid_es_energy:          -12.090023
##########           Internal_energy_repulsive:            6.799212

@<TRIPOS>MOLECULE
PV-001799431004.****
 61 64 1 0 0
SMALL
USER_CHARGES
****

@<TRIPOS>ATOM
      1 N          16.5456  -36.3780  -10.4919 N.am    1  LIG1       -0.7300
      2 C          15.7074  -35.4637   -9.7011 C.3     1  LIG1        0.2200
      3 C          16.2432  -34.0080   -9.7604 C.3     1  LIG1        0.3430
      4 N          15.1667  -33.2582  -10.4528 N.4     1  LIG1       -0.9590
      5 C          13.9265  -33.9493  -10.1117 C.3     1  LIG1        0.3430
      6 C          14.3367  -35.3957  -10.3731 C.3     1  LIG1       -0.1600
      7 C          15.0939  -31.8629   -9.9592 C.3     1  LIG1        0.3430
      8 C          16.4494  -31.2073  -10.3027 C.3     1  LIG1       -0.0800
      9 C          16.8484  -31.4157  -11.7718 C.3     1  LIG1       -0.1600
     10 C          17.8116  -30.2633  -12.0695 C.3     1  LIG1       -0.1600
     11 C          17.5175  -29.1801  -11.0258 C.3     1  LIG1       -0.1600
     12 C          16.3065  -29.6845  -10.2425 C.3     1  LIG1       -0.1600
     13 C          17.6077  -37.1022  -10.0284 C.2     1  LIG1        0.5440
     14 O          17.8081  -37.0005   -8.8345 O.2     1  LIG1       -0.5700
     15 C          18.3610  -37.9781  -10.9217 C.ar    1  LIG1        0.0860
     16 C          18.4102  -37.7210  -12.3019 C.ar    1  LIG1       -0.1500
     17 C          18.8951  -38.6838  -13.1751 C.ar    1  LIG1       -0.1500
     18 C          19.3553  -39.8937  -12.6589 C.ar    1  LIG1        0.0830
     19 C          19.4722  -40.1006  -11.2855 C.ar    1  LIG1       -0.1500
     20 C          18.9714  -39.1371  -10.4180 C.ar    1  LIG1       -0.1500
     21 O          19.5601  -40.9390  -13.5212 O.3     1  LIG1       -0.1650
     22 C          18.4794  -41.7861  -13.5415 C.ar    1  LIG1        0.0830
     23 C          18.4684  -42.8829  -12.6807 C.ar    1  LIG1       -0.1500
     24 C          17.2974  -43.6061  -12.5222 C.ar    1  LIG1       -0.1500
     25 C          16.1318  -43.2479  -13.2197 C.ar    1  LIG1        0.0860
     26 C          16.2019  -42.2111  -14.1709 C.ar    1  LIG1       -0.1500
     27 C          17.3742  -41.4775  -14.3300 C.ar    1  LIG1       -0.1500
     28 C          14.8791  -43.9212  -12.9000 C.2     1  LIG1        0.4230
     29 C          13.9232  -43.3919  -11.8577 C.3     1  LIG1       -0.1790
     30 O          14.6072  -44.9779  -13.4361 O.2     1  LIG1       -0.5700
     31 H          16.3022  -36.5771  -11.4752 H       1  LIG1        0.3700
     32 H          15.5800  -35.7922   -8.6673 H       1  LIG1        0.0800
     33 H          17.1617  -33.9798  -10.3350 H       1  LIG1        0.0800
     34 H          16.3659  -33.6511   -8.7429 H       1  LIG1        0.0800
     35 H          13.1124  -33.6628  -10.7691 H       1  LIG1        0.0800
     36 H          13.6952  -33.8253   -9.0589 H       1  LIG1        0.0800
     37 H          13.6363  -36.1023   -9.9261 H       1  LIG1        0.0800
     38 H          14.4085  -35.5620  -11.4495 H       1  LIG1        0.0800
     39 H          14.9423  -31.8326   -8.8865 H       1  LIG1        0.0800
     40 H          14.3217  -31.3191  -10.4912 H       1  LIG1        0.0800
     41 H          17.2613  -31.5240   -9.6444 H       1  LIG1        0.0800
     42 H          15.9740  -31.3192  -12.4212 H       1  LIG1        0.0800
     43 H          17.3404  -32.3756  -11.9341 H       1  LIG1        0.0800
     44 H          17.6525  -29.8823  -13.0802 H       1  LIG1        0.0800
     45 H          18.8466  -30.5977  -11.9661 H       1  LIG1        0.0800
     46 H          17.3041  -28.2189  -11.4987 H       1  LIG1        0.0800
     47 H          18.3743  -29.0751  -10.3555 H       1  LIG1        0.0800
     48 H          16.3096  -29.3023   -9.2203 H       1  LIG1        0.0800
     49 H          15.3927  -29.3633  -10.7484 H       1  LIG1        0.0800
     50 H          18.0513  -36.7970  -12.6794 H       1  LIG1        0.1500
     51 H          18.8920  -38.5203  -14.2221 H       1  LIG1        0.1500
     52 H          19.9014  -40.9967  -10.9161 H       1  LIG1        0.1500
     53 H          19.0232  -39.2876   -9.3687 H       1  LIG1        0.1500
     54 H          19.3418  -43.1478  -12.1430 H       1  LIG1        0.1500
     55 H          17.2792  -44.4339  -11.8633 H       1  LIG1        0.1500
     56 H          15.3523  -41.9619  -14.7529 H       1  LIG1        0.1500
     57 H          17.4231  -40.6727  -15.0188 H       1  LIG1        0.1500
     58 H          12.9893  -43.9249  -11.9703 H       1  LIG1        0.0800
     59 H          14.3673  -43.5785  -10.8917 H       1  LIG1        0.0800
     60 H          13.7991  -42.3344  -12.0428 H       1  LIG1        0.0800
     61 H          15.3161  -33.2679  -11.4560 H       1  LIG1        0.4500
@<TRIPOS>BOND
     1     1     2    1
     2     1    13   am
     3     1    31    1
     4     2     3    1
     5     2     6    1
     6     2    32    1
     7     3     4    1
     8     3    33    1
     9     3    34    1
    10     4     5    1
    11     4     7    1
    12     4    61    1
    13     5     6    1
    14     5    35    1
    15     5    36    1
    16     6    37    1
    17     6    38    1
    18     7     8    1
    19     7    39    1
    20     7    40    1
    21     8     9    1
    22     8    12    1
    23     8    41    1
    24     9    10    1
    25     9    42    1
    26     9    43    1
    27    10    11    1
    28    10    44    1
    29    10    45    1
    30    11    12    1
    31    11    46    1
    32    11    47    1
    33    12    48    1
    34    12    49    1
    35    13    14    2
    36    13    15    1
    37    15    16   ar
    38    15    20   ar
    39    16    17   ar
    40    16    50    1
    41    17    18   ar
    42    17    51    1
    43    18    19   ar
    44    18    21    1
    45    19    20   ar
    46    19    52    1
    47    20    53    1
    48    21    22    1
    49    22    23   ar
    50    22    27   ar
    51    23    24   ar
    52    23    54    1
    53    24    25   ar
    54    24    55    1
    55    25    26   ar
    56    25    28    1
    57    26    27   ar
    58    26    56    1
    59    27    57    1
    60    28    29    1
    61    28    30    2
    62    29    58    1
    63    29    59    1
    64    29    60    1
@<TRIPOS>SUBSTRUCTURE
     1 LIG1        1 TEMP              0 ****  ****    0 ROOT


##########                                Name:PV-001799431004.****
##########                        Cluster_Size:                   1
##########                          Grid_Score:           77.779808
##########                     Grid_vdw_energy:           90.704285
##########                      Grid_es_energy:          -12.924475
##########           Internal_energy_repulsive:           19.457495

@<TRIPOS>MOLECULE
PV-001799431004.****
 61 64 1 0 0
SMALL
USER_CHARGES
****

@<TRIPOS>ATOM
      1 N          14.7682  -36.3833  -11.4568 N.am    1  LIG1       -0.7300
      2 C          15.0971  -35.5117  -10.3183 C.3     1  LIG1        0.2200
      3 C          16.4241  -34.7426  -10.5569 C.3     1  LIG1        0.3430
      4 N          16.0083  -33.3198  -10.6123 N.4     1  LIG1       -0.9590
      5 C          14.8322  -33.2219   -9.7526 C.3     1  LIG1        0.3430
      6 C          14.0289  -34.4212  -10.2477 C.3     1  LIG1       -0.1600
      7 C          17.0724  -32.4380  -10.0778 C.3     1  LIG1        0.3430
      8 C          16.4658  -31.0199   -9.9999 C.3     1  LIG1       -0.0800
      9 C          17.5390  -29.9258   -9.8903 C.3     1  LIG1       -0.1600
     10 C          16.8506  -28.6656  -10.4216 C.3     1  LIG1       -0.1600
     11 C          15.6846  -29.1497  -11.2907 C.3     1  LIG1       -0.1600
     12 C          15.8161  -30.6712  -11.3413 C.3     1  LIG1       -0.1600
     13 C          14.8349  -36.0426  -12.7785 C.2     1  LIG1        0.5440
     14 O          15.2684  -34.9282  -12.9933 O.2     1  LIG1       -0.5700
     15 C          14.4792  -37.0059  -13.8168 C.ar    1  LIG1        0.0860
     16 C          13.5886  -38.0572  -13.5426 C.ar    1  LIG1       -0.1500
     17 C          13.4567  -39.1118  -14.4343 C.ar    1  LIG1       -0.1500
     18 C          14.1994  -39.0964  -15.6134 C.ar    1  LIG1        0.0830
     19 C          14.9565  -37.9855  -15.9812 C.ar    1  LIG1       -0.1500
     20 C          15.0944  -36.9395  -15.0764 C.ar    1  LIG1       -0.1500
     21 O          14.2911  -40.2512  -16.3457 O.3     1  LIG1       -0.1650
     22 C          15.4718  -40.9062  -16.0957 C.ar    1  LIG1        0.0830
     23 C          16.2692  -41.2899  -17.1732 C.ar    1  LIG1       -0.1500
     24 C          17.5588  -41.7364  -16.9346 C.ar    1  LIG1       -0.1500
     25 C          18.0634  -41.8086  -15.6256 C.ar    1  LIG1        0.0860
     26 C          17.1992  -41.5288  -14.5489 C.ar    1  LIG1       -0.1500
     27 C          15.9044  -41.0743  -14.7830 C.ar    1  LIG1       -0.1500
     28 C          19.4740  -42.1172  -15.4255 C.2     1  LIG1        0.4230
     29 C          19.9335  -43.2330  -14.5176 C.3     1  LIG1       -0.1790
     30 O          20.3243  -41.4250  -15.9506 O.2     1  LIG1       -0.5700
     31 H          14.5292  -37.3742  -11.2930 H       1  LIG1        0.3700
     32 H          15.1206  -36.0476   -9.3669 H       1  LIG1        0.0800
     33 H          16.8613  -35.0520  -11.4991 H       1  LIG1        0.0800
     34 H          17.0750  -34.9193   -9.7068 H       1  LIG1        0.0800
     35 H          14.2831  -32.3022   -9.9252 H       1  LIG1        0.0800
     36 H          15.1030  -33.3743   -8.7130 H       1  LIG1        0.0800
     37 H          13.2302  -34.6877   -9.5544 H       1  LIG1        0.0800
     38 H          13.6170  -34.1981  -11.2335 H       1  LIG1        0.0800
     39 H          17.9364  -32.4231  -10.7318 H       1  LIG1        0.0800
     40 H          17.3346  -32.7390   -9.0699 H       1  LIG1        0.0800
     41 H          15.7319  -30.9076   -9.1988 H       1  LIG1        0.0800
     42 H          18.3893  -30.1604  -10.5366 H       1  LIG1        0.0800
     43 H          17.8712  -29.7744   -8.8624 H       1  LIG1        0.0800
     44 H          17.5492  -28.0656  -11.0080 H       1  LIG1        0.0800
     45 H          16.4639  -28.0669   -9.5935 H       1  LIG1        0.0800
     46 H          15.7304  -28.7202  -12.2938 H       1  LIG1        0.0800
     47 H          14.7377  -28.8757  -10.8189 H       1  LIG1        0.0800
     48 H          14.8435  -31.1479  -11.4735 H       1  LIG1        0.0800
     49 H          16.4725  -30.9472  -12.1702 H       1  LIG1        0.0800
     50 H          13.0343  -38.0565  -12.6382 H       1  LIG1        0.1500
     51 H          12.8248  -39.9338  -14.2157 H       1  LIG1        0.1500
     52 H          15.4474  -37.9623  -16.9204 H       1  LIG1        0.1500
     53 H          15.6905  -36.0970  -15.3240 H       1  LIG1        0.1500
     54 H          15.8966  -41.2242  -18.1627 H       1  LIG1        0.1500
     55 H          18.1728  -42.0203  -17.7484 H       1  LIG1        0.1500
     56 H          17.5382  -41.6341  -13.5506 H       1  LIG1        0.1500
     57 H          15.2604  -40.8278  -13.9775 H       1  LIG1        0.1500
     58 H          20.9825  -43.4042  -14.7157 H       1  LIG1        0.0800
     59 H          19.7748  -42.9049  -13.5015 H       1  LIG1        0.0800
     60 H          19.3397  -44.1046  -14.7534 H       1  LIG1        0.0800
     61 H          15.7778  -33.0542  -11.5637 H       1  LIG1        0.4500
@<TRIPOS>BOND
     1     1     2    1
     2     1    13   am
     3     1    31    1
     4     2     3    1
     5     2     6    1
     6     2    32    1
     7     3     4    1
     8     3    33    1
     9     3    34    1
    10     4     5    1
    11     4     7    1
    12     4    61    1
    13     5     6    1
    14     5    35    1
    15     5    36    1
    16     6    37    1
    17     6    38    1
    18     7     8    1
    19     7    39    1
    20     7    40    1
    21     8     9    1
    22     8    12    1
    23     8    41    1
    24     9    10    1
    25     9    42    1
    26     9    43    1
    27    10    11    1
    28    10    44    1
    29    10    45    1
    30    11    12    1
    31    11    46    1
    32    11    47    1
    33    12    48    1
    34    12    49    1
    35    13    14    2
    36    13    15    1
    37    15    16   ar
    38    15    20   ar
    39    16    17   ar
    40    16    50    1
    41    17    18   ar
    42    17    51    1
    43    18    19   ar
    44    18    21    1
    45    19    20   ar
    46    19    52    1
    47    20    53    1
    48    21    22    1
    49    22    23   ar
    50    22    27   ar
    51    23    24   ar
    52    23    54    1
    53    24    25   ar
    54    24    55    1
    55    25    26   ar
    56    25    28    1
    57    26    27   ar
    58    26    56    1
    59    27    57    1
    60    28    29    1
    61    28    30    2
    62    29    58    1
    63    29    59    1
    64    29    60    1
@<TRIPOS>SUBSTRUCTURE
     1 LIG1        1 TEMP              0 ****  ****    0 ROOT


##########                                Name:PV-001799426713.****
##########                        Cluster_Size:                   1
##########                          Grid_Score:          -50.590645
##########                     Grid_vdw_energy:          -32.063477
##########                      Grid_es_energy:          -18.527166
##########           Internal_energy_repulsive:            7.971104

@<TRIPOS>MOLECULE
PV-001799426713.****
 56 59 1 0 0
SMALL
USER_CHARGES
****

@<TRIPOS>ATOM
      1 C          17.6622  -39.1110  -15.3027 C.ar    1  LIG1       -0.1500
      2 C          18.2336  -38.5441  -14.1699 C.ar    1  LIG1       -0.1500
      3 C          18.6444  -39.3448  -13.0906 C.ar    1  LIG1        0.0860
      4 C          18.4530  -40.7378  -13.1727 C.ar    1  LIG1       -0.1500
      5 C          17.8850  -41.3099  -14.3047 C.ar    1  LIG1       -0.1500
      6 C          17.5005  -40.4960  -15.3662 C.ar    1  LIG1        0.0830
      7 O          16.9366  -41.1011  -16.4659 O.3     1  LIG1       -0.1650
      8 C          17.6438  -41.7423  -17.4628 C.ar    1  LIG1        0.0830
      9 C          19.0208  -41.8746  -17.3074 C.ar    1  LIG1       -0.1500
     10 C          19.7592  -42.5143  -18.2986 C.ar    1  LIG1       -0.1500
     11 C          19.1207  -43.0089  -19.4357 C.ar    1  LIG1       -0.1500
     12 C          17.7429  -42.8626  -19.5882 C.ar    1  LIG1       -0.1500
     13 C          16.9966  -42.2242  -18.6013 C.ar    1  LIG1       -0.1500
     14 C          19.2532  -38.7145  -11.9128 C.2     1  LIG1        0.5440
     15 N          18.6756  -37.6036  -11.3481 N.am    1  LIG1       -0.7300
     16 O          20.2734  -39.1294  -11.3785 O.2     1  LIG1       -0.5700
     17 C          19.2581  -36.9369  -10.1584 C.3     1  LIG1        0.2200
     18 C          18.6141  -35.5541   -9.9332 C.3     1  LIG1        0.3430
     19 N          17.2922  -35.9551   -9.4475 N.4     1  LIG1       -0.9590
     20 C          17.5676  -36.9386   -8.3941 C.3     1  LIG1        0.3430
     21 C          18.7816  -37.7221   -8.9299 C.3     1  LIG1       -0.1600
     22 C          16.5815  -34.7817   -8.9089 C.3     1  LIG1        0.3430
     23 C          16.3561  -33.8365  -10.1054 C.3     1  LIG1       -0.0800
     24 C          15.5209  -34.4816  -11.2193 C.3     1  LIG1       -0.1600
     25 C          14.9265  -33.2915  -11.9761 C.3     1  LIG1       -0.1600
     26 C          14.9489  -32.1099  -11.0003 C.3     1  LIG1       -0.1600
     27 C          15.4586  -32.6749   -9.6742 C.3     1  LIG1       -0.1600
     28 H          17.3466  -38.4974  -16.1078 H       1  LIG1        0.1500
     29 H          18.3578  -37.4909  -14.1184 H       1  LIG1        0.1500
     30 H          18.7300  -41.3664  -12.3668 H       1  LIG1        0.1500
     31 H          17.7382  -42.3580  -14.3686 H       1  LIG1        0.1500
     32 H          19.4956  -41.4939  -16.4405 H       1  LIG1        0.1500
     33 H          20.8083  -42.6245  -18.1904 H       1  LIG1        0.1500
     34 H          19.6867  -43.4956  -20.1884 H       1  LIG1        0.1500
     35 H          17.2627  -43.2360  -20.4567 H       1  LIG1        0.1500
     36 H          15.9513  -42.1012  -18.7153 H       1  LIG1        0.1500
     37 H          17.6557  -37.5289  -11.4672 H       1  LIG1        0.3700
     38 H          20.3486  -36.8937  -10.2044 H       1  LIG1        0.0800
     39 H          18.5503  -34.9982  -10.8605 H       1  LIG1        0.0800
     40 H          19.1667  -35.0342   -9.1601 H       1  LIG1        0.0800
     41 H          16.7250  -37.6079   -8.2551 H       1  LIG1        0.0800
     42 H          17.8610  -36.4352   -7.4788 H       1  LIG1        0.0800
     43 H          19.5627  -37.7316   -8.1677 H       1  LIG1        0.0800
     44 H          18.5091  -38.7485   -9.1782 H       1  LIG1        0.0800
     45 H          17.2108  -34.2581   -8.1976 H       1  LIG1        0.0800
     46 H          15.6230  -35.0594   -8.4831 H       1  LIG1        0.0800
     47 H          17.2862  -33.4354  -10.5137 H       1  LIG1        0.0800
     48 H          14.7064  -35.0712  -10.7932 H       1  LIG1        0.0800
     49 H          16.1299  -35.0971  -11.8841 H       1  LIG1        0.0800
     50 H          13.9071  -33.5120  -12.2979 H       1  LIG1        0.0800
     51 H          15.5391  -33.0541  -12.8489 H       1  LIG1        0.0800
     52 H          13.9549  -31.6722  -10.8819 H       1  LIG1        0.0800
     53 H          15.6404  -31.3475  -11.3673 H       1  LIG1        0.0800
     54 H          16.0104  -31.9203   -9.1091 H       1  LIG1        0.0800
     55 H          14.6097  -33.0368   -9.0887 H       1  LIG1        0.0800
     56 H          16.7872  -36.3789  -10.2206 H       1  LIG1        0.4500
@<TRIPOS>BOND
     1     1     2   ar
     2     1     6   ar
     3     1    28    1
     4     2     3   ar
     5     2    29    1
     6     3     4   ar
     7     3    14    1
     8     4     5   ar
     9     4    30    1
    10     5     6   ar
    11     5    31    1
    12     6     7    1
    13     7     8    1
    14     8     9   ar
    15     8    13   ar
    16     9    10   ar
    17     9    32    1
    18    10    11   ar
    19    10    33    1
    20    11    12   ar
    21    11    34    1
    22    12    13   ar
    23    12    35    1
    24    13    36    1
    25    14    15   am
    26    14    16    2
    27    15    17    1
    28    15    37    1
    29    17    18    1
    30    17    21    1
    31    17    38    1
    32    18    19    1
    33    18    39    1
    34    18    40    1
    35    19    20    1
    36    19    22    1
    37    19    56    1
    38    20    21    1
    39    20    41    1
    40    20    42    1
    41    21    43    1
    42    21    44    1
    43    22    23    1
    44    22    45    1
    45    22    46    1
    46    23    24    1
    47    23    27    1
    48    23    47    1
    49    24    25    1
    50    24    48    1
    51    24    49    1
    52    25    26    1
    53    25    50    1
    54    25    51    1
    55    26    27    1
    56    26    52    1
    57    26    53    1
    58    27    54    1
    59    27    55    1
@<TRIPOS>SUBSTRUCTURE
     1 LIG1        1 TEMP              0 ****  ****    0 ROOT


##########                                Name:PV-001799426713.****
##########                        Cluster_Size:                   1
##########                          Grid_Score:          -42.684765
##########                     Grid_vdw_energy:          -29.078629
##########                      Grid_es_energy:          -13.606136
##########           Internal_energy_repulsive:           12.731940

@<TRIPOS>MOLECULE
PV-001799426713.****
 56 59 1 0 0
SMALL
USER_CHARGES
****

@<TRIPOS>ATOM
      1 C          20.7998  -38.1810  -12.5856 C.ar    1  LIG1       -0.1500
      2 C          19.8844  -37.1360  -12.5518 C.ar    1  LIG1       -0.1500
      3 C          19.1829  -36.8284  -11.3736 C.ar    1  LIG1        0.0860
      4 C          19.4156  -37.6110  -10.2260 C.ar    1  LIG1       -0.1500
      5 C          20.3324  -38.6551  -10.2538 C.ar    1  LIG1       -0.1500
      6 C          21.0252  -38.9295  -11.4292 C.ar    1  LIG1        0.0830
      7 O          21.9195  -39.9753  -11.4165 O.3     1  LIG1       -0.1650
      8 C          21.6633  -41.2259  -10.8919 C.ar    1  LIG1        0.0830
      9 C          20.3526  -41.6937  -10.9245 C.ar    1  LIG1       -0.1500
     10 C          20.0651  -42.9504  -10.3999 C.ar    1  LIG1       -0.1500
     11 C          21.0832  -43.7242   -9.8430 C.ar    1  LIG1       -0.1500
     12 C          22.3910  -43.2436   -9.8048 C.ar    1  LIG1       -0.1500
     13 C          22.6873  -41.9877  -10.3277 C.ar    1  LIG1       -0.1500
     14 C          18.2298  -35.7117  -11.3697 C.2     1  LIG1        0.5440
     15 N          17.2785  -35.6193  -10.3833 N.am    1  LIG1       -0.7300
     16 O          18.2288  -34.8240  -12.2126 O.2     1  LIG1       -0.5700
     17 C          16.2975  -34.5080  -10.3427 C.3     1  LIG1        0.2200
     18 C          15.5281  -34.4054  -11.6750 C.3     1  LIG1        0.3430
     19 N          14.6655  -35.5842  -11.5725 N.4     1  LIG1       -0.9590
     20 C          14.0603  -35.4851  -10.2396 C.3     1  LIG1        0.3430
     21 C          15.1946  -34.9231   -9.3608 C.3     1  LIG1       -0.1600
     22 C          13.6384  -35.5441  -12.6288 C.3     1  LIG1        0.3430
     23 C          12.7141  -36.7496  -12.3673 C.3     1  LIG1       -0.0800
     24 C          11.5753  -36.8545  -13.3904 C.3     1  LIG1       -0.1600
     25 C          11.1700  -38.3296  -13.3469 C.3     1  LIG1       -0.1600
     26 C          12.3786  -39.0888  -12.7884 C.3     1  LIG1       -0.1600
     27 C          13.4846  -38.0465  -12.6227 C.3     1  LIG1       -0.1600
     28 H          21.3170  -38.4113  -13.4821 H       1  LIG1        0.1500
     29 H          19.7104  -36.5648  -13.4297 H       1  LIG1        0.1500
     30 H          18.8857  -37.4201   -9.3293 H       1  LIG1        0.1500
     31 H          20.5084  -39.2469   -9.3919 H       1  LIG1        0.1500
     32 H          19.5870  -41.0971  -11.3485 H       1  LIG1        0.1500
     33 H          19.0712  -43.3194  -10.4219 H       1  LIG1        0.1500
     34 H          20.8602  -44.6808   -9.4445 H       1  LIG1        0.1500
     35 H          23.1607  -43.8336   -9.3761 H       1  LIG1        0.1500
     36 H          23.6767  -41.6127  -10.2932 H       1  LIG1        0.1500
     37 H          17.5381  -36.0405   -9.4804 H       1  LIG1        0.3700
     38 H          16.7589  -33.5632  -10.0463 H       1  LIG1        0.0800
     39 H          16.2019  -34.4724  -12.5204 H       1  LIG1        0.0800
     40 H          14.9396  -33.4960  -11.6683 H       1  LIG1        0.0800
     41 H          13.7564  -36.4609   -9.8754 H       1  LIG1        0.0800
     42 H          13.2467  -34.7674  -10.2497 H       1  LIG1        0.0800
     43 H          14.8265  -34.0482   -8.8223 H       1  LIG1        0.0800
     44 H          15.5418  -35.6673   -8.6431 H       1  LIG1        0.0800
     45 H          14.0962  -35.6927  -13.6005 H       1  LIG1        0.0800
     46 H          13.0582  -34.6285  -12.5834 H       1  LIG1        0.0800
     47 H          12.3132  -36.7677  -11.3516 H       1  LIG1        0.0800
     48 H          11.9393  -36.6180  -14.3925 H       1  LIG1        0.0800
     49 H          10.7306  -36.2138  -13.1305 H       1  LIG1        0.0800
     50 H          10.9130  -38.6865  -14.3458 H       1  LIG1        0.0800
     51 H          10.3147  -38.4674  -12.6813 H       1  LIG1        0.0800
     52 H          12.6933  -39.8882  -13.4634 H       1  LIG1        0.0800
     53 H          12.1232  -39.5147  -11.8150 H       1  LIG1        0.0800
     54 H          14.1451  -38.2998  -11.7905 H       1  LIG1        0.0800
     55 H          14.0577  -37.9810  -13.5511 H       1  LIG1        0.0800
     56 H          15.2510  -36.4111  -11.6478 H       1  LIG1        0.4500
@<TRIPOS>BOND
     1     1     2   ar
     2     1     6   ar
     3     1    28    1
     4     2     3   ar
     5     2    29    1
     6     3     4   ar
     7     3    14    1
     8     4     5   ar
     9     4    30    1
    10     5     6   ar
    11     5    31    1
    12     6     7    1
    13     7     8    1
    14     8     9   ar
    15     8    13   ar
    16     9    10   ar
    17     9    32    1
    18    10    11   ar
    19    10    33    1
    20    11    12   ar
    21    11    34    1
    22    12    13   ar
    23    12    35    1
    24    13    36    1
    25    14    15   am
    26    14    16    2
    27    15    17    1
    28    15    37    1
    29    17    18    1
    30    17    21    1
    31    17    38    1
    32    18    19    1
    33    18    39    1
    34    18    40    1
    35    19    20    1
    36    19    22    1
    37    19    56    1
    38    20    21    1
    39    20    41    1
    40    20    42    1
    41    21    43    1
    42    21    44    1
    43    22    23    1
    44    22    45    1
    45    22    46    1
    46    23    24    1
    47    23    27    1
    48    23    47    1
    49    24    25    1
    50    24    48    1
    51    24    49    1
    52    25    26    1
    53    25    50    1
    54    25    51    1
    55    26    27    1
    56    26    52    1
    57    26    53    1
    58    27    54    1
    59    27    55    1
@<TRIPOS>SUBSTRUCTURE
     1 LIG1        1 TEMP              0 ****  ****    0 ROOT


##########                                Name:PV-001799426713.****
##########                        Cluster_Size:                   3
##########                          Grid_Score:          -42.148514
##########                     Grid_vdw_energy:          -28.349636
##########                      Grid_es_energy:          -13.798876
##########           Internal_energy_repulsive:            7.992662

@<TRIPOS>MOLECULE
PV-001799426713.****
 56 59 1 0 0
SMALL
USER_CHARGES
****

@<TRIPOS>ATOM
      1 C          22.2466  -41.1212  -11.2469 C.ar    1  LIG1       -0.1500
      2 C          20.9803  -41.1263  -10.6745 C.ar    1  LIG1       -0.1500
      3 C          19.9974  -40.2111  -11.0880 C.ar    1  LIG1        0.0860
      4 C          20.3250  -39.2751  -12.0883 C.ar    1  LIG1       -0.1500
      5 C          21.5890  -39.2681  -12.6659 C.ar    1  LIG1       -0.1500
      6 C          22.5397  -40.1951  -12.2492 C.ar    1  LIG1        0.0830
      7 O          23.7807  -40.1507  -12.8420 O.3     1  LIG1       -0.1650
      8 C          24.5744  -39.0247  -12.9270 C.ar    1  LIG1        0.0830
      9 C          25.7249  -39.0921  -13.7079 C.ar    1  LIG1       -0.1500
     10 C          26.5452  -37.9723  -13.8092 C.ar    1  LIG1       -0.1500
     11 C          26.2155  -36.8010  -13.1276 C.ar    1  LIG1       -0.1500
     12 C          25.0673  -36.7457  -12.3392 C.ar    1  LIG1       -0.1500
     13 C          24.2410  -37.8612  -12.2326 C.ar    1  LIG1       -0.1500
     14 C          18.6666  -40.2498  -10.4692 C.2     1  LIG1        0.5440
     15 N          17.9675  -39.0859  -10.2616 N.am    1  LIG1       -0.7300
     16 O          18.1169  -41.2857  -10.1182 O.2     1  LIG1       -0.5700
     17 C          16.6212  -39.0810   -9.6399 C.3     1  LIG1        0.2200
     18 C          16.3260  -37.7193   -8.9794 C.3     1  LIG1        0.3430
     19 N          16.1216  -36.8888  -10.1679 N.4     1  LIG1       -0.9590
     20 C          15.1753  -37.6488  -10.9922 C.3     1  LIG1        0.3430
     21 C          15.6016  -39.1152  -10.7853 C.3     1  LIG1       -0.1600
     22 C          15.5584  -35.5849   -9.7745 C.3     1  LIG1        0.3430
     23 C          15.8599  -34.6234  -10.9409 C.3     1  LIG1       -0.0800
     24 C          14.6866  -34.4973  -11.9217 C.3     1  LIG1       -0.1600
     25 C          14.9158  -33.1473  -12.6053 C.3     1  LIG1       -0.1600
     26 C          15.8028  -32.3330  -11.6570 C.3     1  LIG1       -0.1600
     27 C          15.9755  -33.1947  -10.4060 C.3     1  LIG1       -0.1600
     28 H          22.9844  -41.8096  -10.9212 H       1  LIG1        0.1500
     29 H          20.7541  -41.8294   -9.9117 H       1  LIG1        0.1500
     30 H          19.6144  -38.5568  -12.4051 H       1  LIG1        0.1500
     31 H          21.8389  -38.5637  -13.4179 H       1  LIG1        0.1500
     32 H          25.9665  -39.9871  -14.2201 H       1  LIG1        0.1500
     33 H          27.4226  -38.0098  -14.4037 H       1  LIG1        0.1500
     34 H          26.8429  -35.9503  -13.2074 H       1  LIG1        0.1500
     35 H          24.8234  -35.8545  -11.8191 H       1  LIG1        0.1500
     36 H          23.3726  -37.8290  -11.6279 H       1  LIG1        0.1500
     37 H          18.1748  -38.3238  -10.9221 H       1  LIG1        0.3700
     38 H          16.4808  -39.9221   -8.9572 H       1  LIG1        0.0800
     39 H          17.1703  -37.3799   -8.3919 H       1  LIG1        0.0800
     40 H          15.4111  -37.8016   -8.4053 H       1  LIG1        0.0800
     41 H          15.2658  -37.3794  -12.0393 H       1  LIG1        0.0800
     42 H          14.1662  -37.5282  -10.6121 H       1  LIG1        0.0800
     43 H          14.7291  -39.7006  -10.4902 H       1  LIG1        0.0800
     44 H          16.0237  -39.5349  -11.6992 H       1  LIG1        0.0800
     45 H          16.0743  -35.2038   -8.9000 H       1  LIG1        0.0800
     46 H          14.4855  -35.6450   -9.6250 H       1  LIG1        0.0800
     47 H          16.7763  -34.8779  -11.4778 H       1  LIG1        0.0800
     48 H          13.7386  -34.4624  -11.3806 H       1  LIG1        0.0800
     49 H          14.6772  -35.3054  -12.6556 H       1  LIG1        0.0800
     50 H          13.9655  -32.6404  -12.7818 H       1  LIG1        0.0800
     51 H          15.4339  -33.2882  -13.5567 H       1  LIG1        0.0800
     52 H          15.3444  -31.3727  -11.4094 H       1  LIG1        0.0800
     53 H          16.7752  -32.1618  -12.1250 H       1  LIG1        0.0800
     54 H          16.9425  -33.0133   -9.9314 H       1  LIG1        0.0800
     55 H          15.1658  -32.9760   -9.7053 H       1  LIG1        0.0800
     56 H          17.0161  -36.7859  -10.6386 H       1  LIG1        0.4500
@<TRIPOS>BOND
     1     1     2   ar
     2     1     6   ar
     3     1    28    1
     4     2     3   ar
     5     2    29    1
     6     3     4   ar
     7     3    14    1
     8     4     5   ar
     9     4    30    1
    10     5     6   ar
    11     5    31    1
    12     6     7    1
    13     7     8    1
    14     8     9   ar
    15     8    13   ar
    16     9    10   ar
    17     9    32    1
    18    10    11   ar
    19    10    33    1
    20    11    12   ar
    21    11    34    1
    22    12    13   ar
    23    12    35    1
    24    13    36    1
    25    14    15   am
    26    14    16    2
    27    15    17    1
    28    15    37    1
    29    17    18    1
    30    17    21    1
    31    17    38    1
    32    18    19    1
    33    18    39    1
    34    18    40    1
    35    19    20    1
    36    19    22    1
    37    19    56    1
    38    20    21    1
    39    20    41    1
    40    20    42    1
    41    21    43    1
    42    21    44    1
    43    22    23    1
    44    22    45    1
    45    22    46    1
    46    23    24    1
    47    23    27    1
    48    23    47    1
    49    24    25    1
    50    24    48    1
    51    24    49    1
    52    25    26    1
    53    25    50    1
    54    25    51    1
    55    26    27    1
    56    26    52    1
    57    26    53    1
    58    27    54    1
    59    27    55    1
@<TRIPOS>SUBSTRUCTURE
     1 LIG1        1 TEMP              0 ****  ****    0 ROOT


##########                                Name:PV-001799426713.****
##########                        Cluster_Size:                   5
##########                          Grid_Score:          -37.137455
##########                     Grid_vdw_energy:          -33.927460
##########                      Grid_es_energy:           -3.209994
##########           Internal_energy_repulsive:            8.754787

@<TRIPOS>MOLECULE
PV-001799426713.****
 56 59 1 0 0
SMALL
USER_CHARGES
****

@<TRIPOS>ATOM
      1 C          14.2746  -35.4327  -12.4404 C.ar    1  LIG1       -0.1500
      2 C          14.5427  -36.6352  -13.0831 C.ar    1  LIG1       -0.1500
      3 C          14.9164  -37.7764  -12.3531 C.ar    1  LIG1        0.0860
      4 C          15.0280  -37.6749  -10.9528 C.ar    1  LIG1       -0.1500
      5 C          14.7579  -36.4753  -10.3051 C.ar    1  LIG1       -0.1500
      6 C          14.3749  -35.3639  -11.0499 C.ar    1  LIG1        0.0830
      7 O          14.1224  -34.1938  -10.3712 O.3     1  LIG1       -0.1650
      8 C          14.9054  -33.0591  -10.4367 C.ar    1  LIG1        0.0830
      9 C          15.9602  -32.9385   -9.5363 C.ar    1  LIG1       -0.1500
     10 C          16.7644  -31.8033   -9.5780 C.ar    1  LIG1       -0.1500
     11 C          16.5061  -30.7984  -10.5101 C.ar    1  LIG1       -0.1500
     12 C          15.4411  -30.9223  -11.4009 C.ar    1  LIG1       -0.1500
     13 C          14.6319  -32.0548  -11.3661 C.ar    1  LIG1       -0.1500
     14 C          15.1833  -39.0337  -13.0625 C.2     1  LIG1        0.5440
     15 N          15.2170  -40.2215  -12.3737 N.am    1  LIG1       -0.7300
     16 O          15.3799  -39.0977  -14.2690 O.2     1  LIG1       -0.5700
     17 C          15.4831  -41.5131  -13.0519 C.3     1  LIG1        0.2200
     18 C          16.8449  -42.0914  -12.6174 C.3     1  LIG1        0.3430
     19 N          16.5269  -42.5175  -11.2530 N.4     1  LIG1       -0.9590
     20 C          15.2867  -43.2899  -11.3861 C.3     1  LIG1        0.3430
     21 C          14.4958  -42.5330  -12.4707 C.3     1  LIG1       -0.1600
     22 C          17.6205  -43.3517  -10.7233 C.3     1  LIG1        0.3430
     23 C          18.9155  -42.5472  -10.9502 C.3     1  LIG1       -0.0800
     24 C          18.8909  -41.1788  -10.2565 C.3     1  LIG1       -0.1600
     25 C          20.3690  -40.8202  -10.0871 C.3     1  LIG1       -0.1600
     26 C          21.1390  -42.1443  -10.1406 C.3     1  LIG1       -0.1600
     27 C          20.0769  -43.2399  -10.2346 C.3     1  LIG1       -0.1600
     28 H          14.0027  -34.5747  -13.0010 H       1  LIG1        0.1500
     29 H          14.4675  -36.6909  -14.1407 H       1  LIG1        0.1500
     30 H          15.3305  -38.5100  -10.3762 H       1  LIG1        0.1500
     31 H          14.8427  -36.3956   -9.2512 H       1  LIG1        0.1500
     32 H          16.1465  -33.7071   -8.8317 H       1  LIG1        0.1500
     33 H          17.5731  -31.7012   -8.8998 H       1  LIG1        0.1500
     34 H          17.1209  -29.9353  -10.5387 H       1  LIG1        0.1500
     35 H          15.2459  -30.1535  -12.1044 H       1  LIG1        0.1500
     36 H          13.8157  -32.1508  -12.0335 H       1  LIG1        0.1500
     37 H          14.6337  -40.2556  -11.5260 H       1  LIG1        0.3700
     38 H          15.3826  -41.4359  -14.1368 H       1  LIG1        0.0800
     39 H          17.6144  -41.3294  -12.6318 H       1  LIG1        0.0800
     40 H          17.0765  -42.9448  -13.2430 H       1  LIG1        0.0800
     41 H          14.7290  -43.2962  -10.4554 H       1  LIG1        0.0800
     42 H          15.5040  -44.2875  -11.7534 H       1  LIG1        0.0800
     43 H          14.1902  -43.2388  -13.2450 H       1  LIG1        0.0800
     44 H          13.6104  -42.0548  -12.0503 H       1  LIG1        0.0800
     45 H          17.7038  -44.2673  -11.2983 H       1  LIG1        0.0800
     46 H          17.4957  -43.5424   -9.6625 H       1  LIG1        0.0800
     47 H          19.1665  -42.4315  -12.0068 H       1  LIG1        0.0800
     48 H          18.4319  -41.2595   -9.2688 H       1  LIG1        0.0800
     49 H          18.3765  -40.4249  -10.8555 H       1  LIG1        0.0800
     50 H          20.5338  -40.3116   -9.1356 H       1  LIG1        0.0800
     51 H          20.6979  -40.1750  -10.9050 H       1  LIG1        0.0800
     52 H          21.7615  -42.2791   -9.2529 H       1  LIG1        0.0800
     53 H          21.7695  -42.1632  -11.0329 H       1  LIG1        0.0800
     54 H          20.4464  -44.1016  -10.7950 H       1  LIG1        0.0800
     55 H          19.7853  -43.5442   -9.2262 H       1  LIG1        0.0800
     56 H          16.3808  -41.6854  -10.6886 H       1  LIG1        0.4500
@<TRIPOS>BOND
     1     1     2   ar
     2     1     6   ar
     3     1    28    1
     4     2     3   ar
     5     2    29    1
     6     3     4   ar
     7     3    14    1
     8     4     5   ar
     9     4    30    1
    10     5     6   ar
    11     5    31    1
    12     6     7    1
    13     7     8    1
    14     8     9   ar
    15     8    13   ar
    16     9    10   ar
    17     9    32    1
    18    10    11   ar
    19    10    33    1
    20    11    12   ar
    21    11    34    1
    22    12    13   ar
    23    12    35    1
    24    13    36    1
    25    14    15   am
    26    14    16    2
    27    15    17    1
    28    15    37    1
    29    17    18    1
    30    17    21    1
    31    17    38    1
    32    18    19    1
    33    18    39    1
    34    18    40    1
    35    19    20    1
    36    19    22    1
    37    19    56    1
    38    20    21    1
    39    20    41    1
    40    20    42    1
    41    21    43    1
    42    21    44    1
    43    22    23    1
    44    22    45    1
    45    22    46    1
    46    23    24    1
    47    23    27    1
    48    23    47    1
    49    24    25    1
    50    24    48    1
    51    24    49    1
    52    25    26    1
    53    25    50    1
    54    25    51    1
    55    26    27    1
    56    26    52    1
    57    26    53    1
    58    27    54    1
    59    27    55    1
@<TRIPOS>SUBSTRUCTURE
     1 LIG1        1 TEMP              0 ****  ****    0 ROOT


##########                                Name:PV-001799429813.****
##########                        Cluster_Size:                   4
##########                          Grid_Score:          -47.791615
##########                     Grid_vdw_energy:          -35.643814
##########                      Grid_es_energy:          -12.147801
##########           Internal_energy_repulsive:           14.283985

@<TRIPOS>MOLECULE
PV-001799429813.****
 55 58 1 0 0
SMALL
USER_CHARGES
****

@<TRIPOS>ATOM
      1 C          21.7883  -38.4395  -12.2243 C.ar    1  LIG1       -0.1500
      2 C          20.5351  -38.5779  -11.6415 C.ar    1  LIG1       -0.1500
      3 C          20.2399  -39.6772  -10.8170 C.ar    1  LIG1        0.0860
      4 C          21.2408  -40.6442  -10.5961 C.ar    1  LIG1       -0.1500
      5 C          22.4966  -40.5088  -11.1776 C.ar    1  LIG1       -0.1500
      6 C          22.7605  -39.4126  -11.9929 C.ar    1  LIG1        0.0830
      7 C          18.9069  -39.7924  -10.2154 C.2     1  LIG1        0.5440
      8 N          17.8091  -39.2870  -10.8683 N.am    1  LIG1       -0.7300
      9 O          18.7016  -40.3289   -9.1354 O.2     1  LIG1       -0.5700
     10 C          16.4432  -39.3812  -10.2976 C.3     1  LIG1        0.2200
     11 C          16.1513  -38.1902   -9.3644 C.3     1  LIG1        0.3430
     12 N          16.0275  -37.1118  -10.3477 N.4     1  LIG1       -0.9590
     13 C          15.1041  -37.6371  -11.3625 C.3     1  LIG1        0.3430
     14 C          15.4630  -39.1340  -11.4499 C.3     1  LIG1       -0.1600
     15 C          15.4783  -35.9065   -9.6994 C.3     1  LIG1        0.3430
     16 C          16.0040  -34.7089  -10.5160 C.3     1  LIG1       -0.0800
     17 C          15.0333  -34.2755  -11.6222 C.3     1  LIG1       -0.1600
     18 C          15.4019  -32.8132  -11.8896 C.3     1  LIG1       -0.1600
     19 C          16.1170  -32.3144  -10.6297 C.3     1  LIG1       -0.1600
     20 C          16.0417  -33.4656   -9.6254 C.3     1  LIG1       -0.1600
     21 O          24.0141  -39.3113  -12.5485 O.3     1  LIG1       -0.1650
     22 C          24.6378  -38.1185  -12.8573 C.ar    1  LIG1        0.0830
     23 C          24.2002  -36.9548  -12.2266 C.ar    1  LIG1        0.1600
     24 N          24.7655  -35.7738  -12.4863 N.ar    1  LIG1       -0.6200
     25 C          25.7754  -35.7042  -13.3598 C.ar    1  LIG1        0.1600
     26 C          26.2634  -36.8352  -14.0137 C.ar    1  LIG1       -0.1500
     27 C          25.6920  -38.0753  -13.7634 C.ar    1  LIG1       -0.1500
     28 H          22.0047  -37.5986  -12.8335 H       1  LIG1        0.1500
     29 H          19.7911  -37.8416  -11.8171 H       1  LIG1        0.1500
     30 H          21.0440  -41.4908   -9.9922 H       1  LIG1        0.1500
     31 H          23.2520  -41.2350  -11.0117 H       1  LIG1        0.1500
     32 H          17.8790  -39.2647  -11.8955 H       1  LIG1        0.3700
     33 H          16.2620  -40.3477   -9.8220 H       1  LIG1        0.0800
     34 H          16.9733  -38.0184   -8.6805 H       1  LIG1        0.0800
     35 H          15.2070  -38.3635   -8.8619 H       1  LIG1        0.0800
     36 H          15.2690  -37.1590  -12.3217 H       1  LIG1        0.0800
     37 H          14.0794  -37.5496  -11.0176 H       1  LIG1        0.0800
     38 H          14.5578  -39.7248  -11.3011 H       1  LIG1        0.0800
     39 H          15.8968  -39.3800  -12.4196 H       1  LIG1        0.0800
     40 H          15.8747  -35.8106   -8.6945 H       1  LIG1        0.0800
     41 H          14.3941  -35.9059   -9.7161 H       1  LIG1        0.0800
     42 H          17.0005  -34.8795  -10.9318 H       1  LIG1        0.0800
     43 H          14.0023  -34.3195  -11.2640 H       1  LIG1        0.0800
     44 H          15.1488  -34.8742  -12.5271 H       1  LIG1        0.0800
     45 H          14.5044  -32.2222  -12.0877 H       1  LIG1        0.0800
     46 H          16.0773  -32.7439  -12.7449 H       1  LIG1        0.0800
     47 H          15.6414  -31.4161  -10.2308 H       1  LIG1        0.0800
     48 H          17.1616  -32.0986  -10.8659 H       1  LIG1        0.0800
     49 H          16.9067  -33.4654   -8.9595 H       1  LIG1        0.0800
     50 H          15.1193  -33.3746   -9.0467 H       1  LIG1        0.0800
     51 H          23.4026  -36.9943  -11.5304 H       1  LIG1        0.1500
     52 H          26.2056  -34.7515  -13.5445 H       1  LIG1        0.1500
     53 H          27.0677  -36.7441  -14.6962 H       1  LIG1        0.1500
     54 H          26.0471  -38.9531  -14.2398 H       1  LIG1        0.1500
     55 H          16.9467  -36.9420  -10.7438 H       1  LIG1        0.4500
@<TRIPOS>BOND
     1     1     2   ar
     2     1     6   ar
     3     1    28    1
     4     2     3   ar
     5     2    29    1
     6     3     4   ar
     7     3     7    1
     8     4     5   ar
     9     4    30    1
    10     5     6   ar
    11     5    31    1
    12     6    21    1
    13     7     8   am
    14     7     9    2
    15     8    10    1
    16     8    32    1
    17    10    11    1
    18    10    14    1
    19    10    33    1
    20    11    12    1
    21    11    34    1
    22    11    35    1
    23    12    13    1
    24    12    15    1
    25    12    55    1
    26    13    14    1
    27    13    36    1
    28    13    37    1
    29    14    38    1
    30    14    39    1
    31    15    16    1
    32    15    40    1
    33    15    41    1
    34    16    17    1
    35    16    20    1
    36    16    42    1
    37    17    18    1
    38    17    43    1
    39    17    44    1
    40    18    19    1
    41    18    45    1
    42    18    46    1
    43    19    20    1
    44    19    47    1
    45    19    48    1
    46    20    49    1
    47    20    50    1
    48    21    22    1
    49    22    23   ar
    50    22    27   ar
    51    23    24   ar
    52    23    51    1
    53    24    25   ar
    54    25    26   ar
    55    25    52    1
    56    26    27   ar
    57    26    53    1
    58    27    54    1
@<TRIPOS>SUBSTRUCTURE
     1 LIG1        1 TEMP              0 ****  ****    0 ROOT


##########                                Name:PV-001799429813.****
##########                        Cluster_Size:                   2
##########                          Grid_Score:          -43.461411
##########                     Grid_vdw_energy:          -30.760044
##########                      Grid_es_energy:          -12.701366
##########           Internal_energy_repulsive:           10.444427

@<TRIPOS>MOLECULE
PV-001799429813.****
 55 58 1 0 0
SMALL
USER_CHARGES
****

@<TRIPOS>ATOM
      1 C          20.2431  -39.1909  -11.3997 C.ar    1  LIG1       -0.1500
      2 C          18.9041  -38.8219  -11.4058 C.ar    1  LIG1       -0.1500
      3 C          17.9350  -39.6319  -12.0222 C.ar    1  LIG1        0.0860
      4 C          18.3489  -40.8277  -12.6422 C.ar    1  LIG1       -0.1500
      5 C          19.6885  -41.2005  -12.6378 C.ar    1  LIG1       -0.1500
      6 C          20.6275  -40.3777  -12.0237 C.ar    1  LIG1        0.0830
      7 C          16.5288  -39.2139  -12.0092 C.2     1  LIG1        0.5440
      8 N          16.1963  -37.9204  -11.6881 N.am    1  LIG1       -0.7300
      9 O          15.6021  -39.9662  -12.2767 O.2     1  LIG1       -0.5700
     10 C          14.7884  -37.4543  -11.6625 C.3     1  LIG1        0.2200
     11 C          14.5314  -36.5399  -10.4491 C.3     1  LIG1        0.3430
     12 N          15.2703  -35.3444  -10.8615 N.4     1  LIG1       -0.9590
     13 C          14.8136  -35.0786  -12.2324 C.3     1  LIG1        0.3430
     14 C          14.6210  -36.4837  -12.8371 C.3     1  LIG1       -0.1600
     15 C          14.9434  -34.2215   -9.9631 C.3     1  LIG1        0.3430
     16 C          15.7776  -33.0239  -10.4605 C.3     1  LIG1       -0.0800
     17 C          14.9717  -32.0722  -11.3542 C.3     1  LIG1       -0.1600
     18 C          15.7154  -30.7378  -11.2437 C.3     1  LIG1       -0.1600
     19 C          16.5172  -30.8010   -9.9395 C.3     1  LIG1       -0.1600
     20 C          16.1269  -32.1223   -9.2750 C.3     1  LIG1       -0.1600
     21 O          21.9422  -40.7803  -12.0373 O.3     1  LIG1       -0.1650
     22 C          23.0225  -39.9237  -11.9568 C.ar    1  LIG1        0.0830
     23 C          24.1763  -40.3652  -11.3108 C.ar    1  LIG1        0.1600
     24 N          25.2507  -39.5805  -11.2025 N.ar    1  LIG1       -0.6200
     25 C          25.2256  -38.3521  -11.7299 C.ar    1  LIG1        0.1600
     26 C          24.1044  -37.8592  -12.3968 C.ar    1  LIG1       -0.1500
     27 C          22.9730  -38.6538  -12.5217 C.ar    1  LIG1       -0.1500
     28 H          20.9642  -38.5790  -10.9193 H       1  LIG1        0.1500
     29 H          18.6072  -37.9182  -10.9349 H       1  LIG1        0.1500
     30 H          17.6448  -41.4513  -13.1276 H       1  LIG1        0.1500
     31 H          20.0021  -42.1010  -13.1029 H       1  LIG1        0.1500
     32 H          16.9119  -37.2137  -11.9094 H       1  LIG1        0.3700
     33 H          14.0797  -38.2829  -11.7273 H       1  LIG1        0.0800
     34 H          14.9372  -36.9703   -9.5419 H       1  LIG1        0.0800
     35 H          13.4696  -36.3336  -10.3858 H       1  LIG1        0.0800
     36 H          15.5648  -34.5331  -12.7926 H       1  LIG1        0.0800
     37 H          13.8519  -34.5773  -12.2162 H       1  LIG1        0.0800
     38 H          13.6103  -36.5602  -13.2413 H       1  LIG1        0.0800
     39 H          15.3413  -36.6730  -13.6336 H       1  LIG1        0.0800
     40 H          15.2701  -34.4451   -8.9535 H       1  LIG1        0.0800
     41 H          13.8896  -33.9705  -10.0089 H       1  LIG1        0.0800
     42 H          16.7005  -33.3251  -10.9630 H       1  LIG1        0.0800
     43 H          13.9600  -31.9455  -10.9622 H       1  LIG1        0.0800
     44 H          14.9397  -32.4114  -12.3908 H       1  LIG1        0.0800
     45 H          15.0078  -29.9055  -11.2258 H       1  LIG1        0.0800
     46 H          16.3983  -30.6147  -12.0868 H       1  LIG1        0.0800
     47 H          16.2881  -29.9541   -9.2895 H       1  LIG1        0.0800
     48 H          17.5852  -30.8050  -10.1692 H       1  LIG1        0.0800
     49 H          16.9513  -32.5250   -8.6836 H       1  LIG1        0.0800
     50 H          15.2520  -31.9583   -8.6411 H       1  LIG1        0.0800
     51 H          24.2121  -41.3369  -10.8899 H       1  LIG1        0.1500
     52 H          26.0955  -37.7522  -11.6292 H       1  LIG1        0.1500
     53 H          24.1209  -36.8829  -12.8063 H       1  LIG1        0.1500
     54 H          22.1092  -38.3087  -13.0298 H       1  LIG1        0.1500
     55 H          16.2608  -35.5665  -10.8435 H       1  LIG1        0.4500
@<TRIPOS>BOND
     1     1     2   ar
     2     1     6   ar
     3     1    28    1
     4     2     3   ar
     5     2    29    1
     6     3     4   ar
     7     3     7    1
     8     4     5   ar
     9     4    30    1
    10     5     6   ar
    11     5    31    1
    12     6    21    1
    13     7     8   am
    14     7     9    2
    15     8    10    1
    16     8    32    1
    17    10    11    1
    18    10    14    1
    19    10    33    1
    20    11    12    1
    21    11    34    1
    22    11    35    1
    23    12    13    1
    24    12    15    1
    25    12    55    1
    26    13    14    1
    27    13    36    1
    28    13    37    1
    29    14    38    1
    30    14    39    1
    31    15    16    1
    32    15    40    1
    33    15    41    1
    34    16    17    1
    35    16    20    1
    36    16    42    1
    37    17    18    1
    38    17    43    1
    39    17    44    1
    40    18    19    1
    41    18    45    1
    42    18    46    1
    43    19    20    1
    44    19    47    1
    45    19    48    1
    46    20    49    1
    47    20    50    1
    48    21    22    1
    49    22    23   ar
    50    22    27   ar
    51    23    24   ar
    52    23    51    1
    53    24    25   ar
    54    25    26   ar
    55    25    52    1
    56    26    27   ar
    57    26    53    1
    58    27    54    1
@<TRIPOS>SUBSTRUCTURE
     1 LIG1        1 TEMP              0 ****  ****    0 ROOT


##########                                Name:PV-001799429813.****
##########                        Cluster_Size:                   4
##########                          Grid_Score:          -41.791405
##########                     Grid_vdw_energy:          -37.184250
##########                      Grid_es_energy:           -4.607155
##########           Internal_energy_repulsive:            7.315917

@<TRIPOS>MOLECULE
PV-001799429813.****
 55 58 1 0 0
SMALL
USER_CHARGES
****

@<TRIPOS>ATOM
      1 C          14.7819  -35.7444   -9.8401 C.ar    1  LIG1       -0.1500
      2 C          14.9340  -36.8962  -10.6013 C.ar    1  LIG1       -0.1500
      3 C          15.0805  -36.8247  -11.9973 C.ar    1  LIG1        0.0860
      4 C          15.0639  -35.5580  -12.6144 C.ar    1  LIG1       -0.1500
      5 C          14.9122  -34.4027  -11.8555 C.ar    1  LIG1       -0.1500
      6 C          14.7652  -34.5028  -10.4756 C.ar    1  LIG1        0.0830
      7 C          15.2409  -38.0603  -12.7717 C.2     1  LIG1        0.5440
      8 N          14.8140  -39.2591  -12.2546 N.am    1  LIG1       -0.7300
      9 O          15.7445  -38.0939  -13.8859 O.2     1  LIG1       -0.5700
     10 C          14.9561  -40.5324  -13.0021 C.3     1  LIG1        0.2200
     11 C          16.3329  -41.1741  -12.7432 C.3     1  LIG1        0.3430
     12 N          16.1579  -41.6187  -11.3587 N.4     1  LIG1       -0.9590
     13 C          14.8765  -42.3372  -11.3572 C.3     1  LIG1        0.3430
     14 C          14.0041  -41.5398  -12.3473 C.3     1  LIG1       -0.1600
     15 C          17.2694  -42.5095  -10.9768 C.3     1  LIG1        0.3430
     16 C          18.5309  -41.6235  -10.9440 C.3     1  LIG1       -0.0800
     17 C          18.3973  -40.4398   -9.9771 C.3     1  LIG1       -0.1600
     18 C          19.8445  -40.0710   -9.6372 C.3     1  LIG1       -0.1600
     19 C          20.6844  -41.3186   -9.9297 C.3     1  LIG1       -0.1600
     20 C          19.6863  -42.4095  -10.3216 C.3     1  LIG1       -0.1600
     21 O          14.6198  -33.3389   -9.7581 O.3     1  LIG1       -0.1650
     22 C          15.2464  -32.1476  -10.0665 C.ar    1  LIG1        0.0830
     23 C          14.6118  -31.2679  -10.9421 C.ar    1  LIG1        0.1600
     24 N          15.1704  -30.1025  -11.2763 N.ar    1  LIG1       -0.6200
     25 C          16.3556  -29.7665  -10.7565 C.ar    1  LIG1        0.1600
     26 C          17.0332  -30.6002   -9.8673 C.ar    1  LIG1       -0.1500
     27 C          16.4755  -31.8187   -9.5048 C.ar    1  LIG1       -0.1500
     28 H          14.6863  -35.8092   -8.7857 H       1  LIG1        0.1500
     29 H          14.9443  -37.8435  -10.1226 H       1  LIG1        0.1500
     30 H          15.1570  -35.4725  -13.6652 H       1  LIG1        0.1500
     31 H          14.9008  -33.4479  -12.3179 H       1  LIG1        0.1500
     32 H          14.0273  -39.1984  -11.5929 H       1  LIG1        0.3700
     33 H          14.7371  -40.4116  -14.0654 H       1  LIG1        0.0800
     34 H          17.1280  -40.4443  -12.8337 H       1  LIG1        0.0800
     35 H          16.4538  -42.0216  -13.4074 H       1  LIG1        0.0800
     36 H          14.4254  -42.3242  -10.3712 H       1  LIG1        0.0800
     37 H          15.0090  -43.3404  -11.7478 H       1  LIG1        0.0800
     38 H          13.6094  -42.2225  -13.1015 H       1  LIG1        0.0800
     39 H          13.1742  -41.0503  -11.8367 H       1  LIG1        0.0800
     40 H          17.4236  -43.2620  -11.7424 H       1  LIG1        0.0800
     41 H          17.1098  -42.9456   -9.9970 H       1  LIG1        0.0800
     42 H          18.8320  -41.2717  -11.9342 H       1  LIG1        0.0800
     43 H          17.8882  -40.7501   -9.0618 H       1  LIG1        0.0800
     44 H          17.8805  -39.5938  -10.4332 H       1  LIG1        0.0800
     45 H          19.9293  -39.7818   -8.5870 H       1  LIG1        0.0800
     46 H          20.1827  -39.2465  -10.2684 H       1  LIG1        0.0800
     47 H          21.2689  -41.6188   -9.0577 H       1  LIG1        0.0800
     48 H          21.3570  -41.1162  -10.7663 H       1  LIG1        0.0800
     49 H          20.1293  -43.1141  -11.0279 H       1  LIG1        0.0800
     50 H          19.3584  -42.9335   -9.4205 H       1  LIG1        0.0800
     51 H          13.6713  -31.5191  -11.3604 H       1  LIG1        0.1500
     52 H          16.7738  -28.8330  -11.0397 H       1  LIG1        0.1500
     53 H          17.9684  -30.3004   -9.4713 H       1  LIG1        0.1500
     54 H          16.9640  -32.4692   -8.8253 H       1  LIG1        0.1500
     55 H          16.1146  -40.7942  -10.7680 H       1  LIG1        0.4500
@<TRIPOS>BOND
     1     1     2   ar
     2     1     6   ar
     3     1    28    1
     4     2     3   ar
     5     2    29    1
     6     3     4   ar
     7     3     7    1
     8     4     5   ar
     9     4    30    1
    10     5     6   ar
    11     5    31    1
    12     6    21    1
    13     7     8   am
    14     7     9    2
    15     8    10    1
    16     8    32    1
    17    10    11    1
    18    10    14    1
    19    10    33    1
    20    11    12    1
    21    11    34    1
    22    11    35    1
    23    12    13    1
    24    12    15    1
    25    12    55    1
    26    13    14    1
    27    13    36    1
    28    13    37    1
    29    14    38    1
    30    14    39    1
    31    15    16    1
    32    15    40    1
    33    15    41    1
    34    16    17    1
    35    16    20    1
    36    16    42    1
    37    17    18    1
    38    17    43    1
    39    17    44    1
    40    18    19    1
    41    18    45    1
    42    18    46    1
    43    19    20    1
    44    19    47    1
    45    19    48    1
    46    20    49    1
    47    20    50    1
    48    21    22    1
    49    22    23   ar
    50    22    27   ar
    51    23    24   ar
    52    23    51    1
    53    24    25   ar
    54    25    26   ar
    55    25    52    1
    56    26    27   ar
    57    26    53    1
    58    27    54    1
@<TRIPOS>SUBSTRUCTURE
     1 LIG1        1 TEMP              0 ****  ****    0 ROOT


##########                                Name:PV-000117881128.****
##########                        Cluster_Size:                   3
##########                          Grid_Score:          -49.913246
##########                     Grid_vdw_energy:          -32.685318
##########                      Grid_es_energy:          -17.227926
##########           Internal_energy_repulsive:           11.791886

@<TRIPOS>MOLECULE
PV-000117881128.****
 45 47 1 0 0
SMALL
USER_CHARGES
****

@<TRIPOS>ATOM
      1 C          16.7021  -36.8625  -15.7224 C.ar    1  LIG1       -0.1500
      2 C          16.1552  -36.5536  -14.4823 C.ar    1  LIG1       -0.1500
      3 C          15.0368  -37.2482  -13.9975 C.ar    1  LIG1        0.0860
      4 C          14.4735  -38.2555  -14.8004 C.ar    1  LIG1       -0.1500
      5 C          15.0246  -38.5625  -16.0409 C.ar    1  LIG1       -0.1500
      6 C          16.1385  -37.8676  -16.5013 C.ar    1  LIG1       -0.1500
      7 C          14.4839  -36.9084  -12.6806 C.2     1  LIG1        0.5440
      8 N          14.9207  -35.7831  -12.0254 N.am    1  LIG1       -0.7300
      9 O          13.6320  -37.5778  -12.1136 O.2     1  LIG1       -0.5700
     10 C          14.3971  -35.3923  -10.6942 C.3     1  LIG1        0.2200
     11 C          15.0057  -36.2679   -9.5814 C.3     1  LIG1        0.3430
     12 N          16.3825  -35.7663   -9.5808 N.4     1  LIG1       -0.9590
     13 C          16.2490  -34.3047   -9.5322 C.3     1  LIG1        0.3430
     14 C          14.9898  -34.0162  -10.3732 C.3     1  LIG1       -0.1600
     15 C          17.0991  -36.2793   -8.4000 C.3     1  LIG1        0.3430
     16 C          18.2911  -37.0922   -8.9463 C.3     1  LIG1       -0.0800
     17 C          17.8505  -38.2908   -9.7962 C.3     1  LIG1       -0.1600
     18 C          19.0634  -38.5835  -10.6819 C.3     1  LIG1       -0.1600
     19 C          19.8733  -37.2832  -10.7408 C.3     1  LIG1       -0.1600
     20 C          19.0569  -36.2491   -9.9668 C.3     1  LIG1       -0.1600
     21 H          17.5495  -36.3310  -16.0753 H       1  LIG1        0.1500
     22 H          16.5892  -35.7847  -13.8938 H       1  LIG1        0.1500
     23 H          13.6184  -38.7863  -14.4755 H       1  LIG1        0.1500
     24 H          14.5947  -39.3243  -16.6410 H       1  LIG1        0.1500
     25 H          16.5570  -38.1025  -17.4465 H       1  LIG1        0.1500
     26 H          15.2552  -35.0235  -12.6342 H       1  LIG1        0.3700
     27 H          13.3055  -35.3713  -10.6705 H       1  LIG1        0.0800
     28 H          14.9598  -37.3181   -9.8402 H       1  LIG1        0.0800
     29 H          14.5117  -36.0362   -8.6447 H       1  LIG1        0.0800
     30 H          17.1116  -33.8226   -9.9796 H       1  LIG1        0.0800
     31 H          16.0642  -33.9772   -8.5144 H       1  LIG1        0.0800
     32 H          14.2852  -33.4403   -9.7706 H       1  LIG1        0.0800
     33 H          15.2347  -33.4530  -11.2746 H       1  LIG1        0.0800
     34 H          16.4670  -36.9658   -7.8494 H       1  LIG1        0.0800
     35 H          17.4685  -35.4716   -7.7786 H       1  LIG1        0.0800
     36 H          18.9803  -37.4163   -8.1621 H       1  LIG1        0.0800
     37 H          17.0059  -38.0178  -10.4324 H       1  LIG1        0.0800
     38 H          17.6006  -39.1585   -9.1826 H       1  LIG1        0.0800
     39 H          18.7438  -38.8911  -11.6810 H       1  LIG1        0.0800
     40 H          19.6733  -39.3732  -10.2376 H       1  LIG1        0.0800
     41 H          20.0334  -36.9622  -11.7724 H       1  LIG1        0.0800
     42 H          20.8393  -37.4342  -10.2529 H       1  LIG1        0.0800
     43 H          19.7062  -35.5140   -9.4847 H       1  LIG1        0.0800
     44 H          18.3679  -35.7504  -10.6523 H       1  LIG1        0.0800
     45 H          16.8210  -36.0635  -10.4471 H       1  LIG1        0.4500
@<TRIPOS>BOND
     1     1     2   ar
     2     1     6   ar
     3     1    21    1
     4     2     3   ar
     5     2    22    1
     6     3     4   ar
     7     3     7    1
     8     4     5   ar
     9     4    23    1
    10     5     6   ar
    11     5    24    1
    12     6    25    1
    13     7     8   am
    14     7     9    2
    15     8    10    1
    16     8    26    1
    17    10    11    1
    18    10    14    1
    19    10    27    1
    20    11    12    1
    21    11    28    1
    22    11    29    1
    23    12    13    1
    24    12    15    1
    25    12    45    1
    26    13    14    1
    27    13    30    1
    28    13    31    1
    29    14    32    1
    30    14    33    1
    31    15    16    1
    32    15    34    1
    33    15    35    1
    34    16    17    1
    35    16    20    1
    36    16    36    1
    37    17    18    1
    38    17    37    1
    39    17    38    1
    40    18    19    1
    41    18    39    1
    42    18    40    1
    43    19    20    1
    44    19    41    1
    45    19    42    1
    46    20    43    1
    47    20    44    1
@<TRIPOS>SUBSTRUCTURE
     1 LIG1        1 TEMP              0 ****  ****    0 ROOT


##########                                Name:PV-000117881128.****
##########                        Cluster_Size:                   7
##########                          Grid_Score:          -49.729034
##########                     Grid_vdw_energy:          -34.371628
##########                      Grid_es_energy:          -15.357406
##########           Internal_energy_repulsive:            3.845873

@<TRIPOS>MOLECULE
PV-000117881128.****
 45 47 1 0 0
SMALL
USER_CHARGES
****

@<TRIPOS>ATOM
      1 C          16.7972  -36.9025  -16.6336 C.ar    1  LIG1       -0.1500
      2 C          17.4721  -36.6437  -15.4462 C.ar    1  LIG1       -0.1500
      3 C          17.4595  -37.5736  -14.3957 C.ar    1  LIG1        0.0860
      4 C          16.7376  -38.7679  -14.5663 C.ar    1  LIG1       -0.1500
      5 C          16.0642  -39.0238  -15.7569 C.ar    1  LIG1       -0.1500
      6 C          16.0946  -38.0925  -16.7903 C.ar    1  LIG1       -0.1500
      7 C          18.1877  -37.2799  -13.1551 C.2     1  LIG1        0.5440
      8 N          17.6496  -37.6420  -11.9444 N.am    1  LIG1       -0.7300
      9 O          19.2755  -36.7220  -13.1275 O.2     1  LIG1       -0.5700
     10 C          18.3411  -37.3703  -10.6611 C.3     1  LIG1        0.2200
     11 C          18.2461  -35.8783  -10.2865 C.3     1  LIG1        0.3430
     12 N          16.8234  -35.7862   -9.9479 N.4     1  LIG1       -0.9590
     13 C          16.5830  -36.9077   -9.0309 C.3     1  LIG1        0.3430
     14 C          17.5019  -38.0267   -9.5598 C.3     1  LIG1       -0.1600
     15 C          16.5488  -34.4929   -9.2974 C.3     1  LIG1        0.3430
     16 C          16.3456  -33.4770  -10.4406 C.3     1  LIG1       -0.0800
     17 C          15.3638  -33.9759  -11.5084 C.3     1  LIG1       -0.1600
     18 C          14.8599  -32.6949  -12.1766 C.3     1  LIG1       -0.1600
     19 C          15.0838  -31.5673  -11.1624 C.3     1  LIG1       -0.1600
     20 C          15.6215  -32.2426   -9.9015 C.3     1  LIG1       -0.1600
     21 H          16.8175  -36.1916  -17.4206 H       1  LIG1        0.1500
     22 H          18.0050  -35.7332  -15.3326 H       1  LIG1        0.1500
     23 H          16.6900  -39.4828  -13.7883 H       1  LIG1        0.1500
     24 H          15.5222  -39.9274  -15.8789 H       1  LIG1        0.1500
     25 H          15.5809  -38.2888  -17.6965 H       1  LIG1        0.1500
     26 H          17.0216  -38.4571  -11.9701 H       1  LIG1        0.3700
     27 H          19.3666  -37.7457  -10.6578 H       1  LIG1        0.0800
     28 H          18.5016  -35.2463  -11.1275 H       1  LIG1        0.0800
     29 H          18.8618  -35.6973   -9.4128 H       1  LIG1        0.0800
     30 H          15.5474  -37.2274   -9.0743 H       1  LIG1        0.0800
     31 H          16.9018  -36.6480   -8.0267 H       1  LIG1        0.0800
     32 H          18.1513  -38.3644   -8.7503 H       1  LIG1        0.0800
     33 H          16.9233  -38.8728   -9.9322 H       1  LIG1        0.0800
     34 H          17.4135  -34.1698   -8.7300 H       1  LIG1        0.0800
     35 H          15.6515  -34.5368   -8.6908 H       1  LIG1        0.0800
     36 H          17.2849  -33.1654  -10.9050 H       1  LIG1        0.0800
     37 H          14.5190  -34.4867  -11.0415 H       1  LIG1        0.0800
     38 H          15.8480  -34.6283  -12.2376 H       1  LIG1        0.0800
     39 H          13.8011  -32.7864  -12.4327 H       1  LIG1        0.0800
     40 H          15.4352  -32.4902  -13.0822 H       1  LIG1        0.0800
     41 H          14.1551  -31.0320  -10.9533 H       1  LIG1        0.0800
     42 H          15.8262  -30.8679  -11.5543 H       1  LIG1        0.0800
     43 H          16.2966  -31.5788   -9.3555 H       1  LIG1        0.0800
     44 H          14.7827  -32.5327   -9.2648 H       1  LIG1        0.0800
     45 H          16.2927  -35.8973  -10.8063 H       1  LIG1        0.4500
@<TRIPOS>BOND
     1     1     2   ar
     2     1     6   ar
     3     1    21    1
     4     2     3   ar
     5     2    22    1
     6     3     4   ar
     7     3     7    1
     8     4     5   ar
     9     4    23    1
    10     5     6   ar
    11     5    24    1
    12     6    25    1
    13     7     8   am
    14     7     9    2
    15     8    10    1
    16     8    26    1
    17    10    11    1
    18    10    14    1
    19    10    27    1
    20    11    12    1
    21    11    28    1
    22    11    29    1
    23    12    13    1
    24    12    15    1
    25    12    45    1
    26    13    14    1
    27    13    30    1
    28    13    31    1
    29    14    32    1
    30    14    33    1
    31    15    16    1
    32    15    34    1
    33    15    35    1
    34    16    17    1
    35    16    20    1
    36    16    36    1
    37    17    18    1
    38    17    37    1
    39    17    38    1
    40    18    19    1
    41    18    39    1
    42    18    40    1
    43    19    20    1
    44    19    41    1
    45    19    42    1
    46    20    43    1
    47    20    44    1
@<TRIPOS>SUBSTRUCTURE
     1 LIG1        1 TEMP              0 ****  ****    0 ROOT


##########                                Name:PV-000117880948.****
##########                        Cluster_Size:                   4
##########                          Grid_Score:          -46.934296
##########                     Grid_vdw_energy:          -29.300470
##########                      Grid_es_energy:          -17.633827
##########           Internal_energy_repulsive:           12.618298

@<TRIPOS>MOLECULE
PV-000117880948.****
 48 50 1 0 0
SMALL
USER_CHARGES
****

@<TRIPOS>ATOM
      1 C          18.4135  -41.6103  -13.7743 C.ar    1  LIG1       -0.1500
      2 C          18.6494  -40.5722  -12.8789 C.ar    1  LIG1       -0.1500
      3 C          19.9608  -40.1699  -12.5858 C.ar    1  LIG1        0.0860
      4 C          21.0276  -40.8538  -13.1826 C.ar    1  LIG1       -0.1500
      5 C          20.7900  -41.8913  -14.0762 C.ar    1  LIG1       -0.1500
      6 C          19.4837  -42.2659  -14.3771 C.ar    1  LIG1       -0.1500
      7 C          20.2251  -39.0554  -11.6736 C.2     1  LIG1        0.5440
      8 N          19.2275  -38.3564  -11.0682 N.am    1  LIG1       -0.7300
      9 O          21.3338  -38.6234  -11.4231 O.2     1  LIG1       -0.5700
     10 C          19.4516  -37.2315  -10.1463 C.3     1  LIG1        0.2200
     11 C          18.5288  -36.0655  -10.5383 C.3     1  LIG1        0.3430
     12 N          17.2010  -36.4089   -9.9353 N.4     1  LIG1       -0.9590
     13 C          17.3938  -37.5646   -9.0146 C.3     1  LIG1        0.3430
     14 C          18.9038  -37.6145   -8.7794 C.3     1  LIG1       -0.1600
     15 C          16.7235  -35.2410   -9.1612 C.3     1  LIG1        0.3430
     16 C          15.7057  -34.4925  -10.0504 C.3     1  LIG1       -0.0800
     17 C          15.3391  -35.3562  -11.2795 C.3     1  LIG1       -0.1600
     18 C          14.4359  -34.5755  -12.2444 C.3     1  LIG1       -0.1600
     19 C          15.0968  -33.2610  -12.6812 C.3     1  LIG1       -0.1600
     20 C          15.4700  -32.4028  -11.4662 C.3     1  LIG1       -0.1600
     21 C          16.3782  -33.1823  -10.5046 C.3     1  LIG1       -0.1600
     22 H          17.4198  -41.9100  -13.9939 H       1  LIG1        0.1500
     23 H          17.8322  -40.0908  -12.4072 H       1  LIG1        0.1500
     24 H          22.0246  -40.5792  -12.9436 H       1  LIG1        0.1500
     25 H          21.6032  -42.4020  -14.5267 H       1  LIG1        0.1500
     26 H          19.3036  -43.0581  -15.0592 H       1  LIG1        0.1500
     27 H          18.3563  -38.9017  -11.0014 H       1  LIG1        0.3700
     28 H          20.4990  -36.9317  -10.0787 H       1  LIG1        0.0800
     29 H          18.4723  -36.0005  -11.6192 H       1  LIG1        0.0800
     30 H          18.9252  -35.1665  -10.0819 H       1  LIG1        0.0800
     31 H          17.1069  -38.4812   -9.5195 H       1  LIG1        0.0800
     32 H          16.8748  -37.4320   -8.0714 H       1  LIG1        0.0800
     33 H          19.1935  -36.8718   -8.0349 H       1  LIG1        0.0800
     34 H          19.2298  -38.6056   -8.4618 H       1  LIG1        0.0800
     35 H          17.5436  -34.5605   -8.9558 H       1  LIG1        0.0800
     36 H          16.2282  -35.5659   -8.2530 H       1  LIG1        0.0800
     37 H          14.7941  -34.2333   -9.5075 H       1  LIG1        0.0800
     38 H          14.8061  -36.2578  -10.9768 H       1  LIG1        0.0800
     39 H          16.2471  -35.6488  -11.8126 H       1  LIG1        0.0800
     40 H          13.4840  -34.3528  -11.7589 H       1  LIG1        0.0800
     41 H          14.2331  -35.1840  -13.1282 H       1  LIG1        0.0800
     42 H          14.4093  -32.7045  -13.3208 H       1  LIG1        0.0800
     43 H          15.9967  -33.4814  -13.2604 H       1  LIG1        0.0800
     44 H          14.5597  -32.0971  -10.9467 H       1  LIG1        0.0800
     45 H          15.9874  -31.5037  -11.8063 H       1  LIG1        0.0800
     46 H          17.3188  -33.4016  -11.0149 H       1  LIG1        0.0800
     47 H          16.5920  -32.5532   -9.6390 H       1  LIG1        0.0800
     48 H          16.5234  -36.6384  -10.6532 H       1  LIG1        0.4500
@<TRIPOS>BOND
     1     1     2   ar
     2     1     6   ar
     3     1    22    1
     4     2     3   ar
     5     2    23    1
     6     3     4   ar
     7     3     7    1
     8     4     5   ar
     9     4    24    1
    10     5     6   ar
    11     5    25    1
    12     6    26    1
    13     7     8   am
    14     7     9    2
    15     8    10    1
    16     8    27    1
    17    10    11    1
    18    10    14    1
    19    10    28    1
    20    11    12    1
    21    11    29    1
    22    11    30    1
    23    12    13    1
    24    12    15    1
    25    12    48    1
    26    13    14    1
    27    13    31    1
    28    13    32    1
    29    14    33    1
    30    14    34    1
    31    15    16    1
    32    15    35    1
    33    15    36    1
    34    16    17    1
    35    16    21    1
    36    16    37    1
    37    17    18    1
    38    17    38    1
    39    17    39    1
    40    18    19    1
    41    18    40    1
    42    18    41    1
    43    19    20    1
    44    19    42    1
    45    19    43    1
    46    20    21    1
    47    20    44    1
    48    20    45    1
    49    21    46    1
    50    21    47    1
@<TRIPOS>SUBSTRUCTURE
     1 LIG1        1 TEMP              0 ****  ****    0 ROOT


##########                                Name:PV-000117880948.****
##########                        Cluster_Size:                   1
##########                          Grid_Score:          -45.559849
##########                     Grid_vdw_energy:          -32.948547
##########                      Grid_es_energy:          -12.611302
##########           Internal_energy_repulsive:            5.394552

@<TRIPOS>MOLECULE
PV-000117880948.****
 48 50 1 0 0
SMALL
USER_CHARGES
****

@<TRIPOS>ATOM
      1 C          22.1501  -41.8466  -10.5616 C.ar    1  LIG1       -0.1500
      2 C          20.9724  -41.4881   -9.9141 C.ar    1  LIG1       -0.1500
      3 C          20.1240  -40.5173  -10.4667 C.ar    1  LIG1        0.0860
      4 C          20.5004  -39.8911  -11.6617 C.ar    1  LIG1       -0.1500
      5 C          21.6779  -40.2499  -12.3067 C.ar    1  LIG1       -0.1500
      6 C          22.4999  -41.2315  -11.7607 C.ar    1  LIG1       -0.1500
      7 C          18.8630  -40.1548   -9.8165 C.2     1  LIG1        0.5440
      8 N          18.0336  -39.1994  -10.3160 N.am    1  LIG1       -0.7300
      9 O          18.4767  -40.6222   -8.7625 O.2     1  LIG1       -0.5700
     10 C          16.7594  -38.8067   -9.6930 C.3     1  LIG1        0.2200
     11 C          16.9398  -37.4547   -8.9830 C.3     1  LIG1        0.3430
     12 N          16.8230  -36.4321  -10.0717 N.4     1  LIG1       -0.9590
     13 C          16.3314  -37.1162  -11.3009 C.3     1  LIG1        0.3430
     14 C          15.7754  -38.4485  -10.7969 C.3     1  LIG1       -0.1600
     15 C          15.8356  -35.4127   -9.6509 C.3     1  LIG1        0.3430
     16 C          16.1152  -34.1401  -10.4810 C.3     1  LIG1       -0.0800
     17 C          16.2012  -32.9081   -9.5504 C.3     1  LIG1       -0.1600
     18 C          16.3416  -31.6163  -10.3678 C.3     1  LIG1       -0.1600
     19 C          15.1860  -31.4640  -11.3662 C.3     1  LIG1       -0.1600
     20 C          15.0903  -32.6864  -12.2874 C.3     1  LIG1       -0.1600
     21 C          14.9439  -33.9773  -11.4693 C.3     1  LIG1       -0.1600
     22 H          22.7878  -42.5825  -10.1405 H       1  LIG1        0.1500
     23 H          20.7215  -41.9442   -8.9915 H       1  LIG1        0.1500
     24 H          19.8822  -39.1323  -12.0723 H       1  LIG1        0.1500
     25 H          21.9543  -39.7735  -13.2132 H       1  LIG1        0.1500
     26 H          23.3986  -41.5043  -12.2539 H       1  LIG1        0.1500
     27 H          18.1695  -39.0566  -11.3269 H       1  LIG1        0.3700
     28 H          16.3473  -39.5736   -9.0344 H       1  LIG1        0.0800
     29 H          17.9149  -37.4252   -8.5097 H       1  LIG1        0.0800
     30 H          16.1252  -37.3441   -8.2774 H       1  LIG1        0.0800
     31 H          17.1701  -37.3334  -11.9541 H       1  LIG1        0.0800
     32 H          15.5513  -36.5537  -11.8023 H       1  LIG1        0.0800
     33 H          14.7770  -38.3066  -10.3813 H       1  LIG1        0.0800
     34 H          15.7453  -39.1981  -11.5886 H       1  LIG1        0.0800
     35 H          15.9732  -35.1597   -8.6046 H       1  LIG1        0.0800
     36 H          14.8274  -35.7549   -9.8567 H       1  LIG1        0.0800
     37 H          17.0375  -34.2186  -11.0608 H       1  LIG1        0.0800
     38 H          17.0636  -32.9805   -8.8872 H       1  LIG1        0.0800
     39 H          15.2964  -32.8380   -8.9416 H       1  LIG1        0.0800
     40 H          17.2867  -31.6271  -10.9139 H       1  LIG1        0.0800
     41 H          16.3473  -30.7567   -9.6944 H       1  LIG1        0.0800
     42 H          15.3432  -30.5674  -11.9687 H       1  LIG1        0.0800
     43 H          14.2469  -31.3462  -10.8203 H       1  LIG1        0.0800
     44 H          15.9875  -32.7428  -12.9070 H       1  LIG1        0.0800
     45 H          14.2270  -32.5736  -12.9461 H       1  LIG1        0.0800
     46 H          13.9975  -33.9391  -10.9252 H       1  LIG1        0.0800
     47 H          14.9150  -34.8247  -12.1562 H       1  LIG1        0.0800
     48 H          17.7152  -35.9854  -10.2490 H       1  LIG1        0.4500
@<TRIPOS>BOND
     1     1     2   ar
     2     1     6   ar
     3     1    22    1
     4     2     3   ar
     5     2    23    1
     6     3     4   ar
     7     3     7    1
     8     4     5   ar
     9     4    24    1
    10     5     6   ar
    11     5    25    1
    12     6    26    1
    13     7     8   am
    14     7     9    2
    15     8    10    1
    16     8    27    1
    17    10    11    1
    18    10    14    1
    19    10    28    1
    20    11    12    1
    21    11    29    1
    22    11    30    1
    23    12    13    1
    24    12    15    1
    25    12    48    1
    26    13    14    1
    27    13    31    1
    28    13    32    1
    29    14    33    1
    30    14    34    1
    31    15    16    1
    32    15    35    1
    33    15    36    1
    34    16    17    1
    35    16    21    1
    36    16    37    1
    37    17    18    1
    38    17    38    1
    39    17    39    1
    40    18    19    1
    41    18    40    1
    42    18    41    1
    43    19    20    1
    44    19    42    1
    45    19    43    1
    46    20    21    1
    47    20    44    1
    48    20    45    1
    49    21    46    1
    50    21    47    1
@<TRIPOS>SUBSTRUCTURE
     1 LIG1        1 TEMP              0 ****  ****    0 ROOT


##########                                Name:PV-000117880948.****
##########                        Cluster_Size:                   4
##########                          Grid_Score:          -44.556252
##########                     Grid_vdw_energy:          -29.345066
##########                      Grid_es_energy:          -15.211187
##########           Internal_energy_repulsive:            5.319130

@<TRIPOS>MOLECULE
PV-000117880948.****
 48 50 1 0 0
SMALL
USER_CHARGES
****

@<TRIPOS>ATOM
      1 C          17.0783  -30.5857   -9.5401 C.ar    1  LIG1       -0.1500
      2 C          16.7001  -31.9182   -9.6676 C.ar    1  LIG1       -0.1500
      3 C          15.8545  -32.3209  -10.7118 C.ar    1  LIG1        0.0860
      4 C          15.3704  -31.3534  -11.6015 C.ar    1  LIG1       -0.1500
      5 C          15.7485  -30.0224  -11.4721 C.ar    1  LIG1       -0.1500
      6 C          16.6070  -29.6389  -10.4457 C.ar    1  LIG1       -0.1500
      7 C          15.4763  -33.7253  -10.8815 C.2     1  LIG1        0.5440
      8 N          15.7454  -34.6713   -9.9419 N.am    1  LIG1       -0.7300
      9 O          14.9503  -34.1771  -11.8803 O.2     1  LIG1       -0.5700
     10 C          15.3822  -36.0913  -10.0747 C.3     1  LIG1        0.2200
     11 C          16.4633  -36.8146  -10.8949 C.3     1  LIG1        0.3430
     12 N          17.5616  -37.0971   -9.9157 N.4     1  LIG1       -0.9590
     13 C          17.0495  -36.8068   -8.5467 C.3     1  LIG1        0.3430
     14 C          15.5304  -36.7542   -8.7132 C.3     1  LIG1       -0.1600
     15 C          17.9156  -38.5311  -10.0118 C.3     1  LIG1        0.3430
     16 C          18.7936  -38.6984  -11.2719 C.3     1  LIG1       -0.0800
     17 C          19.0698  -40.1977  -11.5308 C.3     1  LIG1       -0.1600
     18 C          20.0521  -40.3776  -12.6966 C.3     1  LIG1       -0.1600
     19 C          21.3619  -39.6200  -12.4395 C.3     1  LIG1       -0.1600
     20 C          21.0944  -38.1334  -12.1743 C.3     1  LIG1       -0.1600
     21 C          20.1164  -37.9541  -11.0044 C.3     1  LIG1       -0.1600
     22 H          17.7192  -30.2863   -8.7495 H       1  LIG1        0.1500
     23 H          17.0447  -32.6307   -8.9635 H       1  LIG1        0.1500
     24 H          14.7044  -31.6413  -12.3762 H       1  LIG1        0.1500
     25 H          15.3804  -29.2963  -12.1520 H       1  LIG1        0.1500
     26 H          16.8947  -28.6226  -10.3478 H       1  LIG1        0.1500
     27 H          15.8661  -34.2639   -9.0037 H       1  LIG1        0.3700
     28 H          14.3793  -36.2437  -10.4776 H       1  LIG1        0.0800
     29 H          16.7993  -36.1663  -11.6965 H       1  LIG1        0.0800
     30 H          16.0353  -37.7427  -11.2544 H       1  LIG1        0.0800
     31 H          17.3829  -35.8217   -8.2370 H       1  LIG1        0.0800
     32 H          17.3189  -37.5780   -7.8332 H       1  LIG1        0.0800
     33 H          15.1193  -37.7643   -8.7383 H       1  LIG1        0.0800
     34 H          15.0571  -36.1801   -7.9157 H       1  LIG1        0.0800
     35 H          17.0238  -39.1340  -10.1500 H       1  LIG1        0.0800
     36 H          18.4835  -38.8398   -9.1412 H       1  LIG1        0.0800
     37 H          18.3325  -38.2587  -12.1589 H       1  LIG1        0.0800
     38 H          18.1496  -40.7251  -11.7834 H       1  LIG1        0.0800
     39 H          19.5019  -40.6560  -10.6378 H       1  LIG1        0.0800
     40 H          19.6005  -40.0079  -13.6190 H       1  LIG1        0.0800
     41 H          20.2734  -41.4389  -12.8274 H       1  LIG1        0.0800
     42 H          22.0158  -39.7215  -13.3076 H       1  LIG1        0.0800
     43 H          21.8714  -40.0569  -11.5773 H       1  LIG1        0.0800
     44 H          20.6799  -37.6748  -13.0743 H       1  LIG1        0.0800
     45 H          22.0368  -37.6346  -11.9399 H       1  LIG1        0.0800
     46 H          20.5857  -38.3393  -10.0962 H       1  LIG1        0.0800
     47 H          19.9242  -36.8884  -10.8700 H       1  LIG1        0.0800
     48 H          18.3799  -36.5329  -10.1137 H       1  LIG1        0.4500
@<TRIPOS>BOND
     1     1     2   ar
     2     1     6   ar
     3     1    22    1
     4     2     3   ar
     5     2    23    1
     6     3     4   ar
     7     3     7    1
     8     4     5   ar
     9     4    24    1
    10     5     6   ar
    11     5    25    1
    12     6    26    1
    13     7     8   am
    14     7     9    2
    15     8    10    1
    16     8    27    1
    17    10    11    1
    18    10    14    1
    19    10    28    1
    20    11    12    1
    21    11    29    1
    22    11    30    1
    23    12    13    1
    24    12    15    1
    25    12    48    1
    26    13    14    1
    27    13    31    1
    28    13    32    1
    29    14    33    1
    30    14    34    1
    31    15    16    1
    32    15    35    1
    33    15    36    1
    34    16    17    1
    35    16    21    1
    36    16    37    1
    37    17    18    1
    38    17    38    1
    39    17    39    1
    40    18    19    1
    41    18    40    1
    42    18    41    1
    43    19    20    1
    44    19    42    1
    45    19    43    1
    46    20    21    1
    47    20    44    1
    48    20    45    1
    49    21    46    1
    50    21    47    1
@<TRIPOS>SUBSTRUCTURE
     1 LIG1        1 TEMP              0 ****  ****    0 ROOT


##########                                Name:PV-000117880948.****
##########                        Cluster_Size:                   1
##########                          Grid_Score:          -43.476746
##########                     Grid_vdw_energy:          -33.736748
##########                      Grid_es_energy:           -9.739999
##########           Internal_energy_repulsive:           12.115933

@<TRIPOS>MOLECULE
PV-000117880948.****
 48 50 1 0 0
SMALL
USER_CHARGES
****

@<TRIPOS>ATOM
      1 C          15.6872  -30.0511  -11.3250 C.ar    1  LIG1       -0.1500
      2 C          15.2913  -31.3742  -11.1587 C.ar    1  LIG1       -0.1500
      3 C          15.8762  -32.1720  -10.1642 C.ar    1  LIG1        0.0860
      4 C          16.8888  -31.6244   -9.3662 C.ar    1  LIG1       -0.1500
      5 C          17.2837  -30.3026   -9.5344 C.ar    1  LIG1       -0.1500
      6 C          16.6793  -29.5139  -10.5091 C.ar    1  LIG1       -0.1500
      7 C          15.4453  -33.5553   -9.9522 C.2     1  LIG1        0.5440
      8 N          16.2769  -34.5098   -9.4546 N.am    1  LIG1       -0.7300
      9 O          14.3465  -33.9836  -10.2487 O.2     1  LIG1       -0.5700
     10 C          15.8824  -35.9093   -9.2272 C.3     1  LIG1        0.2200
     11 C          15.6020  -36.5814  -10.5815 C.3     1  LIG1        0.3430
     12 N          16.9530  -36.9567  -11.1096 N.4     1  LIG1       -0.9590
     13 C          17.9479  -36.7680  -10.0164 C.3     1  LIG1        0.3430
     14 C          17.1026  -36.6799   -8.7452 C.3     1  LIG1       -0.1600
     15 C          16.9213  -38.3838  -11.5015 C.3     1  LIG1        0.3430
     16 C          17.0671  -38.4357  -13.0386 C.3     1  LIG1       -0.0800
     17 C          18.0774  -37.3650  -13.5122 C.3     1  LIG1       -0.1600
     18 C          18.1331  -37.3084  -15.0452 C.3     1  LIG1       -0.1600
     19 C          16.7433  -37.0456  -15.6409 C.3     1  LIG1       -0.1600
     20 C          15.7343  -38.0998  -15.1689 C.3     1  LIG1       -0.1600
     21 C          15.6749  -38.1517  -13.6356 C.3     1  LIG1       -0.1600
     22 H          15.2409  -29.4512  -12.0776 H       1  LIG1        0.1500
     23 H          14.5510  -31.7840  -11.7959 H       1  LIG1        0.1500
     24 H          17.3608  -32.2284   -8.6321 H       1  LIG1        0.1500
     25 H          18.0488  -29.8943   -8.9238 H       1  LIG1        0.1500
     26 H          16.9818  -28.5051  -10.6367 H       1  LIG1        0.1500
     27 H          17.0496  -34.1049   -8.9070 H       1  LIG1        0.3700
     28 H          15.0511  -36.0145   -8.5277 H       1  LIG1        0.0800
     29 H          15.0990  -35.8769  -11.2345 H       1  LIG1        0.0800
     30 H          15.0152  -37.4717  -10.3900 H       1  LIG1        0.0800
     31 H          18.4514  -35.8155  -10.1458 H       1  LIG1        0.0800
     32 H          18.6434  -37.5971   -9.9438 H       1  LIG1        0.0800
     33 H          16.8127  -37.6786   -8.4161 H       1  LIG1        0.0800
     34 H          17.6325  -36.1637   -7.9438 H       1  LIG1        0.0800
     35 H          15.9638  -38.8264  -11.2468 H       1  LIG1        0.0800
     36 H          17.7491  -38.9187  -11.0493 H       1  LIG1        0.0800
     37 H          17.3912  -39.4175  -13.3906 H       1  LIG1        0.0800
     38 H          19.0806  -37.5885  -13.1483 H       1  LIG1        0.0800
     39 H          17.7804  -36.3821  -13.1382 H       1  LIG1        0.0800
     40 H          18.5161  -38.2533  -15.4349 H       1  LIG1        0.0800
     41 H          18.8116  -36.5115  -15.3569 H       1  LIG1        0.0800
     42 H          16.8061  -37.0660  -16.7304 H       1  LIG1        0.0800
     43 H          16.3999  -36.0533  -15.3388 H       1  LIG1        0.0800
     44 H          16.0241  -39.0773  -15.5596 H       1  LIG1        0.0800
     45 H          14.7464  -37.8538  -15.5628 H       1  LIG1        0.0800
     46 H          15.2987  -37.1938  -13.2692 H       1  LIG1        0.0800
     47 H          14.9753  -38.9351  -13.3396 H       1  LIG1        0.0800
     48 H          17.1998  -36.3909  -11.9134 H       1  LIG1        0.4500
@<TRIPOS>BOND
     1     1     2   ar
     2     1     6   ar
     3     1    22    1
     4     2     3   ar
     5     2    23    1
     6     3     4   ar
     7     3     7    1
     8     4     5   ar
     9     4    24    1
    10     5     6   ar
    11     5    25    1
    12     6    26    1
    13     7     8   am
    14     7     9    2
    15     8    10    1
    16     8    27    1
    17    10    11    1
    18    10    14    1
    19    10    28    1
    20    11    12    1
    21    11    29    1
    22    11    30    1
    23    12    13    1
    24    12    15    1
    25    12    48    1
    26    13    14    1
    27    13    31    1
    28    13    32    1
    29    14    33    1
    30    14    34    1
    31    15    16    1
    32    15    35    1
    33    15    36    1
    34    16    17    1
    35    16    21    1
    36    16    37    1
    37    17    18    1
    38    17    38    1
    39    17    39    1
    40    18    19    1
    41    18    40    1
    42    18    41    1
    43    19    20    1
    44    19    42    1
    45    19    43    1
    46    20    21    1
    47    20    44    1
    48    20    45    1
    49    21    46    1
    50    21    47    1
@<TRIPOS>SUBSTRUCTURE
     1 LIG1        1 TEMP              0 ****  ****    0 ROOT


##########                                Name:              G4.sdf
##########                        Cluster_Size:                   6
##########                          Grid_Score:          -44.042427
##########                     Grid_vdw_energy:          -42.068146
##########                      Grid_es_energy:           -1.974281
##########           Internal_energy_repulsive:           20.202988

@<TRIPOS>MOLECULE
G4.sdf
 79 83 1 0 0
SMALL
USER_CHARGES
****

@<TRIPOS>ATOM
      1 C          14.7095  -43.5360   -9.0453 C.ar    1  LIG1       -0.0100
      2 C          14.1909  -44.2481  -10.0730 C.ar    1  LIG1       -0.1500
      3 C          14.4671  -43.5420  -11.2438 C.ar    1  LIG1       -0.1500
      4 C          15.1516  -42.4149  -10.8906 C.ar    1  LIG1        0.0550
      5 O          15.2954  -42.4177   -9.5208 O.2     1  LIG1       -0.2800
      6 C          15.6798  -41.3296  -11.7127 C.2     1  LIG1        0.7150
      7 N          15.5035  -41.3891  -13.0680 N.am    1  LIG1       -0.7300
      8 O          16.2615  -40.3408  -11.2745 O.2     1  LIG1       -0.5700
      9 C          16.0184  -40.3167  -13.9478 C.3     1  LIG1        0.2810
     10 C          14.9004  -39.2698  -14.1079 C.2     1  LIG1        0.5690
     11 C          16.3448  -40.9497  -15.3242 C.3     1  LIG1       -0.1600
     12 C          17.4672  -42.0068  -15.1901 C.3     1  LIG1       -0.0800
     13 C          18.7881  -41.4331  -14.6420 C.3     1  LIG1       -0.1600
     14 C          19.8458  -42.5376  -14.4458 C.3     1  LIG1       -0.1600
     15 C          19.6851  -43.7318  -15.4035 C.3     1  LIG1       -0.1600
     16 C          19.1095  -43.2781  -16.7495 C.3     1  LIG1       -0.1600
     17 C          17.7174  -42.6388  -16.5796 C.3     1  LIG1       -0.1600
     18 N          14.9192  -38.2498  -13.2456 N.am    1  LIG1       -0.7300
     19 O          13.9706  -39.3993  -14.9018 O.2     1  LIG1       -0.5700
     20 C          13.9399  -37.1669  -13.2482 C.3     1  LIG1        0.1400
     21 C          14.6545  -35.8926  -12.7841 C.3     1  LIG1        0.2000
     22 C          15.2128  -36.0845  -11.3574 C.3     1  LIG1        0.1400
     23 N          15.8650  -34.7875  -11.0308 N.am    1  LIG1       -0.6600
     24 C          14.8916  -33.6626  -11.0130 C.3     1  LIG1        0.1400
     25 C          14.3266  -33.5605  -12.4503 C.3     1  LIG1        0.1200
     26 O          13.7120  -34.8131  -12.7547 O.3     1  LIG1       -0.5600
     27 C          17.1906  -34.5802  -11.3899 C.2     1  LIG1        0.5440
     28 O          17.5364  -33.4337  -11.6521 O.2     1  LIG1       -0.5700
     29 C          18.1433  -35.6902  -11.4055 C.ar    1  LIG1        0.0860
     30 C          18.6375  -36.2019  -10.1994 C.ar    1  LIG1       -0.1500
     31 C          19.5236  -37.2705  -10.1934 C.ar    1  LIG1       -0.1500
     32 C          19.9461  -37.8600  -11.3950 C.ar    1  LIG1        0.0860
     33 C          19.4784  -37.3212  -12.6048 C.ar    1  LIG1       -0.1500
     34 C          18.5898  -36.2529  -12.6095 C.ar    1  LIG1       -0.1500
     35 C          20.8666  -38.9984  -11.3699 C.2     1  LIG1        0.3980
     36 O          21.9610  -38.8898  -11.9068 O.2     1  LIG1       -0.5700
     37 C          20.5160  -40.2607  -10.7165 C.ar    1  LIG1        0.0860
     38 C          21.4969  -41.2133  -10.3970 C.ar    1  LIG1       -0.1500
     39 C          21.1496  -42.4012   -9.7634 C.ar    1  LIG1       -0.1500
     40 C          19.8192  -42.6590   -9.4472 C.ar    1  LIG1       -0.1500
     41 C          18.8344  -41.7321   -9.7721 C.ar    1  LIG1       -0.1500
     42 C          19.1783  -40.5439  -10.4055 C.ar    1  LIG1       -0.1500
     43 H          14.7096  -43.7403   -8.0043 H       1  LIG1        0.1500
     44 H          13.6753  -45.1711   -9.9946 H       1  LIG1        0.1500
     45 H          14.1934  -43.8294  -12.2257 H       1  LIG1        0.1500
     46 H          14.6774  -41.8937  -13.4086 H       1  LIG1        0.3700
     47 H          16.8880  -39.8360  -13.5219 H       1  LIG1        0.0800
     48 H          16.6650  -40.1660  -16.0125 H       1  LIG1        0.0800
     49 H          15.4434  -41.4138  -15.7279 H       1  LIG1        0.0800
     50 H          17.1389  -42.8010  -14.5166 H       1  LIG1        0.0800
     51 H          18.6328  -40.9364  -13.6847 H       1  LIG1        0.0800
     52 H          19.1705  -40.6952  -15.3500 H       1  LIG1        0.0800
     53 H          19.7881  -42.9103  -13.4208 H       1  LIG1        0.0800
     54 H          20.8338  -42.0953  -14.5835 H       1  LIG1        0.0800
     55 H          19.0071  -44.4635  -14.9598 H       1  LIG1        0.0800
     56 H          20.6533  -44.2124  -15.5542 H       1  LIG1        0.0800
     57 H          19.0419  -44.1274  -17.4304 H       1  LIG1        0.0800
     58 H          19.7892  -42.5449  -17.1868 H       1  LIG1        0.0800
     59 H          16.9548  -43.4012  -16.7483 H       1  LIG1        0.0800
     60 H          17.6038  -41.8819  -17.3584 H       1  LIG1        0.0800
     61 H          15.3667  -38.4171  -12.3487 H       1  LIG1        0.3700
     62 H          13.1083  -37.3857  -12.5759 H       1  LIG1        0.0800
     63 H          13.5534  -37.0175  -14.2576 H       1  LIG1        0.0800
     64 H          15.4597  -35.6745  -13.4889 H       1  LIG1        0.0800
     65 H          15.9292  -36.8952  -11.3517 H       1  LIG1        0.0800
     66 H          14.3876  -36.2587  -10.6787 H       1  LIG1        0.0800
     67 H          15.3585  -32.7225  -10.7599 H       1  LIG1        0.0800
     68 H          14.0758  -33.9031  -10.3442 H       1  LIG1        0.0800
     69 H          15.1271  -33.3410  -13.1584 H       1  LIG1        0.0800
     70 H          13.5803  -32.7667  -12.4975 H       1  LIG1        0.0800
     71 H          18.3303  -35.7604   -9.2847 H       1  LIG1        0.1500
     72 H          19.8918  -37.6466   -9.2712 H       1  LIG1        0.1500
     73 H          19.8133  -37.7234  -13.5280 H       1  LIG1        0.1500
     74 H          18.2472  -35.8513  -13.5300 H       1  LIG1        0.1500
     75 H          22.5106  -41.0341  -10.6466 H       1  LIG1        0.1500
     76 H          21.8971  -43.1142   -9.5224 H       1  LIG1        0.1500
     77 H          19.5544  -43.5660   -8.9644 H       1  LIG1        0.1500
     78 H          17.8195  -41.9333   -9.5397 H       1  LIG1        0.1500
     79 H          18.4241  -39.8420  -10.6589 H       1  LIG1        0.1500
@<TRIPOS>BOND
     1     1     2   ar
     2     1     5   ar
     3     1    43    1
     4     2     3   ar
     5     2    44    1
     6     3     4   ar
     7     3    45    1
     8     4     5   ar
     9     4     6    1
    10     6     7   am
    11     6     8    2
    12     7     9    1
    13     7    46    1
    14     9    10    1
    15     9    11    1
    16     9    47    1
    17    10    18   am
    18    10    19    2
    19    11    12    1
    20    11    48    1
    21    11    49    1
    22    12    13    1
    23    12    17    1
    24    12    50    1
    25    13    14    1
    26    13    51    1
    27    13    52    1
    28    14    15    1
    29    14    53    1
    30    14    54    1
    31    15    16    1
    32    15    55    1
    33    15    56    1
    34    16    17    1
    35    16    57    1
    36    16    58    1
    37    17    59    1
    38    17    60    1
    39    18    20    1
    40    18    61    1
    41    20    21    1
    42    20    62    1
    43    20    63    1
    44    21    22    1
    45    21    26    1
    46    21    64    1
    47    22    23    1
    48    22    65    1
    49    22    66    1
    50    23    24    1
    51    23    27   am
    52    24    25    1
    53    24    67    1
    54    24    68    1
    55    25    26    1
    56    25    69    1
    57    25    70    1
    58    27    28    2
    59    27    29    1
    60    29    30   ar
    61    29    34   ar
    62    30    31   ar
    63    30    71    1
    64    31    32   ar
    65    31    72    1
    66    32    33   ar
    67    32    35    1
    68    33    34   ar
    69    33    73    1
    70    34    74    1
    71    35    36    2
    72    35    37    1
    73    37    38   ar
    74    37    42   ar
    75    38    39   ar
    76    38    75    1
    77    39    40   ar
    78    39    76    1
    79    40    41   ar
    80    40    77    1
    81    41    42   ar
    82    41    78    1
    83    42    79    1
@<TRIPOS>SUBSTRUCTURE
     1 LIG1        1 TEMP              0 ****  ****    0 ROOT


##########                                Name:              G4.sdf
##########                        Cluster_Size:                   2
##########                          Grid_Score:          -24.854267
##########                     Grid_vdw_energy:          -20.803465
##########                      Grid_es_energy:           -4.050802
##########           Internal_energy_repulsive:           18.631630

@<TRIPOS>MOLECULE
G4.sdf
 79 83 1 0 0
SMALL
USER_CHARGES
****

@<TRIPOS>ATOM
      1 C          26.3718  -41.3256  -10.1618 C.ar    1  LIG1       -0.0100
      2 C          27.2471  -41.2406  -11.1908 C.ar    1  LIG1       -0.1500
      3 C          26.4967  -41.1429  -12.3625 C.ar    1  LIG1       -0.1500
      4 C          25.1786  -41.1698  -12.0082 C.ar    1  LIG1        0.0550
      5 O          25.1101  -41.2866  -10.6376 O.2     1  LIG1       -0.2800
      6 C          23.9740  -41.1030  -12.8312 C.2     1  LIG1        0.7150
      7 N          22.7548  -41.1599  -12.2135 N.am    1  LIG1       -0.7300
      8 O          23.9686  -40.9768  -14.0527 O.2     1  LIG1       -0.5700
      9 C          21.5026  -41.0964  -12.9991 C.3     1  LIG1        0.2810
     10 C          20.4296  -40.4392  -12.1113 C.2     1  LIG1        0.5690
     11 C          21.0834  -42.5490  -13.3396 C.3     1  LIG1       -0.1600
     12 C          19.7341  -42.5678  -14.0974 C.3     1  LIG1       -0.0800
     13 C          19.2577  -43.9858  -14.4674 C.3     1  LIG1       -0.1600
     14 C          17.8719  -43.9584  -15.1425 C.3     1  LIG1       -0.1600
     15 C          17.5776  -42.6565  -15.9089 C.3     1  LIG1       -0.1600
     16 C          18.8649  -42.0638  -16.4923 C.3     1  LIG1       -0.1600
     17 C          19.8796  -41.7212  -15.3838 C.3     1  LIG1       -0.1600
     18 N          19.7025  -41.2658  -11.3546 N.am    1  LIG1       -0.7300
     19 O          20.1632  -39.2400  -12.1596 O.2     1  LIG1       -0.5700
     20 C          18.6435  -40.8207  -10.4535 C.3     1  LIG1        0.1400
     21 C          17.3009  -41.1774  -11.1016 C.3     1  LIG1        0.2000
     22 C          16.1690  -40.3275  -10.4849 C.3     1  LIG1        0.1400
     23 N          14.9363  -40.7747  -11.1882 N.am    1  LIG1       -0.6600
     24 C          14.6419  -42.2114  -10.9387 C.3     1  LIG1        0.1400
     25 C          15.8358  -43.0029  -11.5248 C.3     1  LIG1        0.1200
     26 O          17.0125  -42.5585  -10.8486 O.3     1  LIG1       -0.5600
     27 C          14.5742  -40.1679  -12.3840 C.2     1  LIG1        0.5440
     28 O          13.9702  -40.8471  -13.2066 O.2     1  LIG1       -0.5700
     29 C          14.8664  -38.7547  -12.6238 C.ar    1  LIG1        0.0860
     30 C          13.9759  -37.7725  -12.1732 C.ar    1  LIG1       -0.1500
     31 C          14.2480  -36.4255  -12.3703 C.ar    1  LIG1       -0.1500
     32 C          15.4193  -36.0180  -13.0274 C.ar    1  LIG1        0.0860
     33 C          16.2925  -37.0058  -13.5117 C.ar    1  LIG1       -0.1500
     34 C          16.0202  -38.3537  -13.3119 C.ar    1  LIG1       -0.1500
     35 C          15.6999  -34.5927  -13.2105 C.2     1  LIG1        0.3980
     36 O          15.8328  -34.1540  -14.3452 O.2     1  LIG1       -0.5700
     37 C          15.8212  -33.6774  -12.0744 C.ar    1  LIG1        0.0860
     38 C          15.2997  -32.3748  -12.1286 C.ar    1  LIG1       -0.1500
     39 C          15.4102  -31.5223  -11.0358 C.ar    1  LIG1       -0.1500
     40 C          16.0493  -31.9539   -9.8775 C.ar    1  LIG1       -0.1500
     41 C          16.5853  -33.2360   -9.8147 C.ar    1  LIG1       -0.1500
     42 C          16.4764  -34.0903  -10.9053 C.ar    1  LIG1       -0.1500
     43 H          26.5495  -41.4090   -9.1192 H       1  LIG1        0.1500
     44 H          28.3043  -41.2449  -11.1122 H       1  LIG1        0.1500
     45 H          26.8818  -41.0639  -13.3460 H       1  LIG1        0.1500
     46 H          22.7024  -40.8039  -11.2524 H       1  LIG1        0.3700
     47 H          21.6247  -40.5040  -13.8951 H       1  LIG1        0.0800
     48 H          20.9881  -43.1208  -12.4152 H       1  LIG1        0.0800
     49 H          21.8596  -43.0120  -13.9511 H       1  LIG1        0.0800
     50 H          18.9637  -42.1038  -13.4782 H       1  LIG1        0.0800
     51 H          19.1939  -44.6210  -13.5844 H       1  LIG1        0.0800
     52 H          19.9804  -44.4302  -15.1547 H       1  LIG1        0.0800
     53 H          17.1001  -44.0895  -14.3809 H       1  LIG1        0.0800
     54 H          17.8079  -44.8036  -15.8296 H       1  LIG1        0.0800
     55 H          17.1319  -41.9282  -15.2285 H       1  LIG1        0.0800
     56 H          16.8626  -42.8568  -16.7089 H       1  LIG1        0.0800
     57 H          18.6339  -41.1663  -17.0674 H       1  LIG1        0.0800
     58 H          19.3075  -42.7966  -17.1688 H       1  LIG1        0.0800
     59 H          19.7668  -40.6699  -15.1132 H       1  LIG1        0.0800
     60 H          20.8807  -41.8480  -15.8012 H       1  LIG1        0.0800
     61 H          19.6078  -42.2227  -11.6833 H       1  LIG1        0.3700
     62 H          18.6945  -39.7431  -10.2870 H       1  LIG1        0.0800
     63 H          18.7302  -41.3348   -9.4950 H       1  LIG1        0.0800
     64 H          17.3795  -40.9967  -12.1758 H       1  LIG1        0.0800
     65 H          16.3622  -39.2780  -10.6627 H       1  LIG1        0.0800
     66 H          16.0915  -40.5595   -9.4303 H       1  LIG1        0.0800
     67 H          13.7388  -42.5352  -11.4341 H       1  LIG1        0.0800
     68 H          14.6063  -42.3916   -9.8724 H       1  LIG1        0.0800
     69 H          15.9177  -42.8269  -12.5985 H       1  LIG1        0.0800
     70 H          15.6937  -44.0695  -11.3475 H       1  LIG1        0.0800
     71 H          13.0839  -38.0685  -11.6806 H       1  LIG1        0.1500
     72 H          13.5624  -35.6918  -12.0250 H       1  LIG1        0.1500
     73 H          17.1651  -36.7251  -14.0463 H       1  LIG1        0.1500
     74 H          16.6851  -39.0909  -13.6866 H       1  LIG1        0.1500
     75 H          14.8245  -32.0307  -13.0106 H       1  LIG1        0.1500
     76 H          15.0106  -30.5410  -11.0837 H       1  LIG1        0.1500
     77 H          16.1343  -31.3029   -9.0439 H       1  LIG1        0.1500
     78 H          17.0807  -33.5610   -8.9353 H       1  LIG1        0.1500
     79 H          16.8927  -35.0650  -10.8574 H       1  LIG1        0.1500
@<TRIPOS>BOND
     1     1     2   ar
     2     1     5   ar
     3     1    43    1
     4     2     3   ar
     5     2    44    1
     6     3     4   ar
     7     3    45    1
     8     4     5   ar
     9     4     6    1
    10     6     7   am
    11     6     8    2
    12     7     9    1
    13     7    46    1
    14     9    10    1
    15     9    11    1
    16     9    47    1
    17    10    18   am
    18    10    19    2
    19    11    12    1
    20    11    48    1
    21    11    49    1
    22    12    13    1
    23    12    17    1
    24    12    50    1
    25    13    14    1
    26    13    51    1
    27    13    52    1
    28    14    15    1
    29    14    53    1
    30    14    54    1
    31    15    16    1
    32    15    55    1
    33    15    56    1
    34    16    17    1
    35    16    57    1
    36    16    58    1
    37    17    59    1
    38    17    60    1
    39    18    20    1
    40    18    61    1
    41    20    21    1
    42    20    62    1
    43    20    63    1
    44    21    22    1
    45    21    26    1
    46    21    64    1
    47    22    23    1
    48    22    65    1
    49    22    66    1
    50    23    24    1
    51    23    27   am
    52    24    25    1
    53    24    67    1
    54    24    68    1
    55    25    26    1
    56    25    69    1
    57    25    70    1
    58    27    28    2
    59    27    29    1
    60    29    30   ar
    61    29    34   ar
    62    30    31   ar
    63    30    71    1
    64    31    32   ar
    65    31    72    1
    66    32    33   ar
    67    32    35    1
    68    33    34   ar
    69    33    73    1
    70    34    74    1
    71    35    36    2
    72    35    37    1
    73    37    38   ar
    74    37    42   ar
    75    38    39   ar
    76    38    75    1
    77    39    40   ar
    78    39    76    1
    79    40    41   ar
    80    40    77    1
    81    41    42   ar
    82    41    78    1
    83    42    79    1
@<TRIPOS>SUBSTRUCTURE
     1 LIG1        1 TEMP              0 ****  ****    0 ROOT


##########                                Name:              G4.sdf
##########                        Cluster_Size:                   2
##########                          Grid_Score:           69.699677
##########                     Grid_vdw_energy:           70.054382
##########                      Grid_es_energy:           -0.354708
##########           Internal_energy_repulsive:           84.906944

@<TRIPOS>MOLECULE
G4.sdf
 79 83 1 0 0
SMALL
USER_CHARGES
****

@<TRIPOS>ATOM
      1 C          24.4157  -38.2702  -13.7161 C.ar    1  LIG1       -0.0100
      2 C          23.9212  -37.1160  -13.2107 C.ar    1  LIG1       -0.1500
      3 C          22.7780  -37.4426  -12.4813 C.ar    1  LIG1       -0.1500
      4 C          22.6117  -38.7950  -12.5641 C.ar    1  LIG1        0.0550
      5 O          23.6333  -39.3015  -13.3366 O.2     1  LIG1       -0.2800
      6 C          21.5828  -39.6605  -11.9939 C.2     1  LIG1        0.7150
      7 N          20.5952  -39.0927  -11.2366 N.am    1  LIG1       -0.7300
      8 O          21.5212  -40.8756  -12.1603 O.2     1  LIG1       -0.5700
      9 C          19.5282  -39.9229  -10.6352 C.3     1  LIG1        0.2810
     10 C          19.3562  -41.1714  -11.5202 C.2     1  LIG1        0.5690
     11 C          18.2207  -39.0911  -10.6424 C.3     1  LIG1       -0.1600
     12 C          18.2160  -38.0654   -9.4834 C.3     1  LIG1       -0.0800
     13 C          16.9196  -37.2364   -9.4028 C.3     1  LIG1       -0.1600
     14 C          16.9274  -36.2920   -8.1842 C.3     1  LIG1       -0.1600
     15 C          18.3353  -35.8483   -7.7484 C.3     1  LIG1       -0.1600
     16 C          19.2755  -35.7539   -8.9551 C.3     1  LIG1       -0.1600
     17 C          19.4244  -37.1161   -9.6606 C.3     1  LIG1       -0.1600
     18 N          18.4498  -41.0817  -12.4974 N.am    1  LIG1       -0.7300
     19 O          19.9266  -42.2366  -11.2934 O.2     1  LIG1       -0.5700
     20 C          18.1536  -42.1642  -13.4312 C.3     1  LIG1        0.1400
     21 C          17.7093  -41.5290  -14.7536 C.3     1  LIG1        0.2000
     22 C          16.1954  -41.2274  -14.7177 C.3     1  LIG1        0.1400
     23 N          15.8989  -40.6297  -16.0477 N.am    1  LIG1       -0.6600
     24 C          16.1678  -41.5810  -17.1593 C.3     1  LIG1        0.1400
     25 C          17.6837  -41.8881  -17.1049 C.3     1  LIG1        0.1200
     26 O          17.9567  -42.4523  -15.8216 O.3     1  LIG1       -0.5600
     27 C          16.0431  -39.2601  -16.2283 C.2     1  LIG1        0.5440
     28 O          16.3604  -38.8636  -17.3440 O.2     1  LIG1       -0.5700
     29 C          15.7773  -38.3292  -15.1315 C.ar    1  LIG1        0.0860
     30 C          14.6396  -38.4995  -14.3329 C.ar    1  LIG1       -0.1500
     31 C          14.3835  -37.6406  -13.2727 C.ar    1  LIG1       -0.1500
     32 C          15.2564  -36.5816  -12.9791 C.ar    1  LIG1        0.0860
     33 C          16.3768  -36.3902  -13.8043 C.ar    1  LIG1       -0.1500
     34 C          16.6334  -37.2518  -14.8639 C.ar    1  LIG1       -0.1500
     35 C          14.9811  -35.6963  -11.8459 C.2     1  LIG1        0.3980
     36 O          14.3112  -36.1170  -10.9120 O.2     1  LIG1       -0.5700
     37 C          15.4888  -34.3241  -11.7968 C.ar    1  LIG1        0.0860
     38 C          15.1169  -33.3742  -12.7617 C.ar    1  LIG1       -0.1500
     39 C          15.5964  -32.0709  -12.6931 C.ar    1  LIG1       -0.1500
     40 C          16.4593  -31.6992  -11.6666 C.ar    1  LIG1       -0.1500
     41 C          16.8495  -32.6334  -10.7128 C.ar    1  LIG1       -0.1500
     42 C          16.3720  -33.9369  -10.7788 C.ar    1  LIG1       -0.1500
     43 H          25.2718  -38.4402  -14.3193 H       1  LIG1        0.1500
     44 H          24.3335  -36.1488  -13.3460 H       1  LIG1        0.1500
     45 H          22.1542  -36.7633  -11.9605 H       1  LIG1        0.1500
     46 H          20.3431  -38.1215  -11.4520 H       1  LIG1        0.3700
     47 H          19.7862  -40.2380   -9.6339 H       1  LIG1        0.0800
     48 H          17.3676  -39.7629  -10.5356 H       1  LIG1        0.0800
     49 H          18.1313  -38.5722  -11.5983 H       1  LIG1        0.0800
     50 H          18.3406  -38.5902   -8.5341 H       1  LIG1        0.0800
     51 H          16.0451  -37.8821   -9.3277 H       1  LIG1        0.0800
     52 H          16.8264  -36.6420  -10.3139 H       1  LIG1        0.0800
     53 H          16.4495  -36.7934   -7.3398 H       1  LIG1        0.0800
     54 H          16.3313  -35.4113   -8.4285 H       1  LIG1        0.0800
     55 H          18.7418  -36.5746   -7.0419 H       1  LIG1        0.0800
     56 H          18.2747  -34.8815   -7.2456 H       1  LIG1        0.0800
     57 H          20.2557  -35.3977   -8.6359 H       1  LIG1        0.0800
     58 H          18.8631  -35.0292   -9.6590 H       1  LIG1        0.0800
     59 H          20.3118  -37.6200   -9.2737 H       1  LIG1        0.0800
     60 H          19.5924  -36.9222  -10.7220 H       1  LIG1        0.0800
     61 H          17.6916  -40.4194  -12.3587 H       1  LIG1        0.3700
     62 H          17.3592  -42.8080  -13.0493 H       1  LIG1        0.0800
     63 H          19.0490  -42.7642  -13.6011 H       1  LIG1        0.0800
     64 H          18.2832  -40.6121  -14.9040 H       1  LIG1        0.0800
     65 H          15.9809  -40.5304  -13.9187 H       1  LIG1        0.0800
     66 H          15.6551  -42.1591  -14.6082 H       1  LIG1        0.0800
     67 H          15.9378  -41.1563  -18.1250 H       1  LIG1        0.0800
     68 H          15.6286  -42.5024  -16.9828 H       1  LIG1        0.0800
     69 H          18.2618  -40.9753  -17.2561 H       1  LIG1        0.0800
     70 H          17.9423  -42.6077  -17.8825 H       1  LIG1        0.0800
     71 H          13.9689  -39.2927  -14.5490 H       1  LIG1        0.1500
     72 H          13.5157  -37.7806  -12.6770 H       1  LIG1        0.1500
     73 H          17.0310  -35.5735  -13.6277 H       1  LIG1        0.1500
     74 H          17.4804  -37.0941  -15.4833 H       1  LIG1        0.1500
     75 H          14.4726  -33.6501  -13.5560 H       1  LIG1        0.1500
     76 H          15.3079  -31.3584  -13.4241 H       1  LIG1        0.1500
     77 H          16.8257  -30.7048  -11.6149 H       1  LIG1        0.1500
     78 H          17.5147  -32.3523   -9.9363 H       1  LIG1        0.1500
     79 H          16.6772  -34.6493  -10.0542 H       1  LIG1        0.1500
@<TRIPOS>BOND
     1     1     2   ar
     2     1     5   ar
     3     1    43    1
     4     2     3   ar
     5     2    44    1
     6     3     4   ar
     7     3    45    1
     8     4     5   ar
     9     4     6    1
    10     6     7   am
    11     6     8    2
    12     7     9    1
    13     7    46    1
    14     9    10    1
    15     9    11    1
    16     9    47    1
    17    10    18   am
    18    10    19    2
    19    11    12    1
    20    11    48    1
    21    11    49    1
    22    12    13    1
    23    12    17    1
    24    12    50    1
    25    13    14    1
    26    13    51    1
    27    13    52    1
    28    14    15    1
    29    14    53    1
    30    14    54    1
    31    15    16    1
    32    15    55    1
    33    15    56    1
    34    16    17    1
    35    16    57    1
    36    16    58    1
    37    17    59    1
    38    17    60    1
    39    18    20    1
    40    18    61    1
    41    20    21    1
    42    20    62    1
    43    20    63    1
    44    21    22    1
    45    21    26    1
    46    21    64    1
    47    22    23    1
    48    22    65    1
    49    22    66    1
    50    23    24    1
    51    23    27   am
    52    24    25    1
    53    24    67    1
    54    24    68    1
    55    25    26    1
    56    25    69    1
    57    25    70    1
    58    27    28    2
    59    27    29    1
    60    29    30   ar
    61    29    34   ar
    62    30    31   ar
    63    30    71    1
    64    31    32   ar
    65    31    72    1
    66    32    33   ar
    67    32    35    1
    68    33    34   ar
    69    33    73    1
    70    34    74    1
    71    35    36    2
    72    35    37    1
    73    37    38   ar
    74    37    42   ar
    75    38    39   ar
    76    38    75    1
    77    39    40   ar
    78    39    76    1
    79    40    41   ar
    80    40    77    1
    81    41    42   ar
    82    41    78    1
    83    42    79    1
@<TRIPOS>SUBSTRUCTURE
     1 LIG1        1 TEMP              0 ****  ****    0 ROOT


##########                                Name:     Z412133170.****
##########                        Cluster_Size:                   5
##########                          Grid_Score:          -37.192280
##########                     Grid_vdw_energy:          -33.993931
##########                      Grid_es_energy:           -3.198349
##########           Internal_energy_repulsive:            7.395084

@<TRIPOS>MOLECULE
Z412133170.****
 47 49 1 0 0
SMALL
USER_CHARGES
****

@<TRIPOS>ATOM
      1 C          15.3514  -34.0738  -10.3077 C.ar    1  LIG1        0.1980
      2 N          14.5031  -34.6255   -9.4908 N.ar    1  LIG1       -0.3380
      3 N          14.9148  -35.8614   -9.0466 N.ar    1  LIG1       -0.3380
      4 C          16.0646  -36.1827   -9.5563 C.ar    1  LIG1        0.4420
      5 S          16.7400  -35.0225  -10.6090 S.2     1  LIG1       -0.0800
      6 C          15.1972  -32.7142  -10.9738 C.3     1  LIG1        0.1000
      7 C          16.3570  -31.8090  -10.5327 C.3     1  LIG1       -0.2400
      8 C          15.2015  -32.9014  -12.4975 C.3     1  LIG1       -0.2400
      9 N          16.6541  -37.4077   -9.2247 N.am    1  LIG1       -0.4940
     10 C          16.7364  -38.5243   -9.9918 C.2     1  LIG1        0.6900
     11 N          17.3710  -39.5481   -9.3811 N.am    1  LIG1       -0.7300
     12 O          16.2922  -38.6257  -11.1245 O.2     1  LIG1       -0.5700
     13 C          17.5580  -40.8265  -10.0412 C.3     1  LIG1        0.2840
     14 C          19.0555  -40.8904  -10.2566 C.ar    1  LIG1       -0.1430
     15 C          19.8310  -41.8172   -9.5581 C.ar    1  LIG1       -0.1500
     16 C          21.2050  -41.8857   -9.7589 C.ar    1  LIG1       -0.1500
     17 C          21.8280  -41.0187  -10.6640 C.ar    1  LIG1        0.1000
     18 C          21.0491  -40.0997  -11.3789 C.ar    1  LIG1       -0.1500
     19 C          19.6753  -40.0390  -11.1718 C.ar    1  LIG1       -0.1500
     20 N          23.2298  -41.0860  -10.8622 N.pl3   1  LIG1       -0.8380
     21 C          24.0765  -42.0409  -10.1474 C.3     1  LIG1        0.2090
     22 C          25.4539  -41.7242  -10.7271 C.3     1  LIG1       -0.1600
     23 C          25.1196  -41.4705  -12.1954 C.3     1  LIG1       -0.1600
     24 C          23.8536  -40.6132  -12.1042 C.3     1  LIG1        0.2090
     25 H          14.2555  -32.2458  -10.6806 H       1  LIG1        0.0800
     26 H          16.2541  -30.8240  -10.9892 H       1  LIG1        0.0800
     27 H          16.3458  -31.7012   -9.4477 H       1  LIG1        0.0800
     28 H          17.3105  -32.2460  -10.8349 H       1  LIG1        0.0800
     29 H          15.0769  -31.9375  -12.9910 H       1  LIG1        0.0800
     30 H          16.1437  -33.3490  -12.8185 H       1  LIG1        0.0800
     31 H          14.3814  -33.5586  -12.7888 H       1  LIG1        0.0800
     32 H          17.0662  -37.4576   -8.2923 H       1  LIG1        0.3700
     33 H          17.7492  -39.4496   -8.4321 H       1  LIG1        0.3700
     34 H          17.0464  -40.8315  -10.9955 H       1  LIG1        0.0800
     35 H          17.2443  -41.6319   -9.3887 H       1  LIG1        0.0800
     36 H          19.3701  -42.4784   -8.8692 H       1  LIG1        0.1500
     37 H          21.7749  -42.6020   -9.2302 H       1  LIG1        0.1500
     38 H          21.4981  -39.4457  -12.0768 H       1  LIG1        0.1500
     39 H          19.0958  -39.3386  -11.7169 H       1  LIG1        0.1500
     40 H          23.7928  -43.0510  -10.4172 H       1  LIG1        0.0800
     41 H          24.0683  -41.8466   -9.0822 H       1  LIG1        0.0800
     42 H          26.1474  -42.5566  -10.6038 H       1  LIG1        0.0800
     43 H          25.8466  -40.8169  -10.2667 H       1  LIG1        0.0800
     44 H          24.8871  -42.4131  -12.6935 H       1  LIG1        0.0800
     45 H          25.9245  -40.9489  -12.7123 H       1  LIG1        0.0800
     46 H          24.1268  -39.5723  -11.9878 H       1  LIG1        0.0800
     47 H          23.2246  -40.8104  -12.9631 H       1  LIG1        0.0800
@<TRIPOS>BOND
     1     1     2   ar
     2     1     5   ar
     3     1     6    1
     4     2     3   ar
     5     3     4   ar
     6     4     5   ar
     7     4     9    1
     8     6     7    1
     9     6     8    1
    10     6    25    1
    11     7    26    1
    12     7    27    1
    13     7    28    1
    14     8    29    1
    15     8    30    1
    16     8    31    1
    17     9    10   am
    18     9    32    1
    19    10    11   am
    20    10    12    2
    21    11    13    1
    22    11    33    1
    23    13    14    1
    24    13    34    1
    25    13    35    1
    26    14    15   ar
    27    14    19   ar
    28    15    16   ar
    29    15    36    1
    30    16    17   ar
    31    16    37    1
    32    17    18   ar
    33    17    20    1
    34    18    19   ar
    35    18    38    1
    36    19    39    1
    37    20    21    1
    38    20    24    1
    39    21    22    1
    40    21    40    1
    41    21    41    1
    42    22    23    1
    43    22    42    1
    44    22    43    1
    45    23    24    1
    46    23    44    1
    47    23    45    1
    48    24    46    1
    49    24    47    1
@<TRIPOS>SUBSTRUCTURE
     1 LIG1        1 TEMP              0 ****  ****    0 ROOT


##########                                Name:     Z412133170.****
##########                        Cluster_Size:                   2
##########                          Grid_Score:          -36.016247
##########                     Grid_vdw_energy:          -32.959606
##########                      Grid_es_energy:           -3.056642
##########           Internal_energy_repulsive:            9.783998

@<TRIPOS>MOLECULE
Z412133170.****
 47 49 1 0 0
SMALL
USER_CHARGES
****

@<TRIPOS>ATOM
      1 C          15.5037  -34.0907  -10.3683 C.ar    1  LIG1        0.1980
      2 N          16.3687  -34.5732  -11.2111 N.ar    1  LIG1       -0.3380
      3 N          16.4041  -35.9491  -11.2122 N.ar    1  LIG1       -0.3380
      4 C          15.5555  -36.4397  -10.3612 C.ar    1  LIG1        0.4420
      5 S          14.6484  -35.2838   -9.4943 S.2     1  LIG1       -0.0800
      6 C          15.2186  -32.6157  -10.1250 C.3     1  LIG1        0.1000
      7 C          16.4757  -31.9555   -9.5394 C.3     1  LIG1       -0.2400
      8 C          14.8267  -31.9570  -11.4551 C.3     1  LIG1       -0.2400
      9 N          15.4413  -37.8265  -10.2141 N.am    1  LIG1       -0.4940
     10 C          16.4183  -38.7591  -10.3480 C.2     1  LIG1        0.6900
     11 N          15.9856  -40.0216  -10.1416 N.am    1  LIG1       -0.7300
     12 O          17.5817  -38.5143  -10.6258 O.2     1  LIG1       -0.5700
     13 C          16.8836  -41.1569  -10.2403 C.3     1  LIG1        0.2840
     14 C          16.7556  -41.5760  -11.6898 C.ar    1  LIG1       -0.1430
     15 C          17.4394  -40.8818  -12.6892 C.ar    1  LIG1       -0.1500
     16 C          17.3321  -41.2681  -14.0204 C.ar    1  LIG1       -0.1500
     17 C          16.5297  -42.3590  -14.3740 C.ar    1  LIG1        0.1000
     18 C          15.8565  -43.0678  -13.3706 C.ar    1  LIG1       -0.1500
     19 C          15.9705  -42.6743  -12.0417 C.ar    1  LIG1       -0.1500
     20 N          16.4167  -42.7470  -15.7325 N.pl3   1  LIG1       -0.8380
     21 C          17.1168  -42.0448  -16.8080 C.3     1  LIG1        0.2090
     22 C          16.6894  -42.8531  -18.0318 C.3     1  LIG1       -0.1600
     23 C          16.7117  -44.2781  -17.4834 C.3     1  LIG1       -0.1600
     24 C          16.0483  -44.1164  -16.1122 C.3     1  LIG1        0.2090
     25 H          14.3961  -32.4935   -9.4173 H       1  LIG1        0.0800
     26 H          16.2844  -30.8997   -9.3442 H       1  LIG1        0.0800
     27 H          16.7462  -32.4469   -8.6044 H       1  LIG1        0.0800
     28 H          17.3080  -32.0451  -10.2398 H       1  LIG1        0.0800
     29 H          14.6044  -30.9017  -11.2962 H       1  LIG1        0.0800
     30 H          15.6431  -32.0468  -12.1739 H       1  LIG1        0.0800
     31 H          13.9427  -32.4492  -11.8620 H       1  LIG1        0.0800
     32 H          14.5079  -38.1672   -9.9807 H       1  LIG1        0.3700
     33 H          15.0074  -40.2160   -9.8991 H       1  LIG1        0.3700
     34 H          16.5461  -41.9564   -9.5928 H       1  LIG1        0.0800
     35 H          17.9004  -40.8463  -10.0343 H       1  LIG1        0.0800
     36 H          18.0494  -40.0531  -12.4332 H       1  LIG1        0.1500
     37 H          17.8668  -40.7382  -14.7626 H       1  LIG1        0.1500
     38 H          15.2567  -43.9026  -13.6150 H       1  LIG1        0.1500
     39 H          15.4554  -43.2168  -11.2908 H       1  LIG1        0.1500
     40 H          18.1867  -42.1385  -16.6668 H       1  LIG1        0.0800
     41 H          16.7680  -41.0236  -16.8971 H       1  LIG1        0.0800
     42 H          17.3812  -42.7249  -18.8648 H       1  LIG1        0.0800
     43 H          15.6750  -42.5749  -18.3199 H       1  LIG1        0.0800
     44 H          17.7423  -44.6118  -17.3532 H       1  LIG1        0.0800
     45 H          16.1597  -44.9685  -18.1204 H       1  LIG1        0.0800
     46 H          14.9729  -44.1756  -16.2192 H       1  LIG1        0.0800
     47 H          16.4636  -44.8430  -15.4253 H       1  LIG1        0.0800
@<TRIPOS>BOND
     1     1     2   ar
     2     1     5   ar
     3     1     6    1
     4     2     3   ar
     5     3     4   ar
     6     4     5   ar
     7     4     9    1
     8     6     7    1
     9     6     8    1
    10     6    25    1
    11     7    26    1
    12     7    27    1
    13     7    28    1
    14     8    29    1
    15     8    30    1
    16     8    31    1
    17     9    10   am
    18     9    32    1
    19    10    11   am
    20    10    12    2
    21    11    13    1
    22    11    33    1
    23    13    14    1
    24    13    34    1
    25    13    35    1
    26    14    15   ar
    27    14    19   ar
    28    15    16   ar
    29    15    36    1
    30    16    17   ar
    31    16    37    1
    32    17    18   ar
    33    17    20    1
    34    18    19   ar
    35    18    38    1
    36    19    39    1
    37    20    21    1
    38    20    24    1
    39    21    22    1
    40    21    40    1
    41    21    41    1
    42    22    23    1
    43    22    42    1
    44    22    43    1
    45    23    24    1
    46    23    44    1
    47    23    45    1
    48    24    46    1
    49    24    47    1
@<TRIPOS>SUBSTRUCTURE
     1 LIG1        1 TEMP              0 ****  ****    0 ROOT


##########                                Name:     Z412133170.****
##########                        Cluster_Size:                   3
##########                          Grid_Score:          -35.450348
##########                     Grid_vdw_energy:          -33.680603
##########                      Grid_es_energy:           -1.769743
##########           Internal_energy_repulsive:            9.370374

@<TRIPOS>MOLECULE
Z412133170.****
 47 49 1 0 0
SMALL
USER_CHARGES
****

@<TRIPOS>ATOM
      1 C          14.8337  -33.7013  -11.2681 C.ar    1  LIG1        0.1980
      2 N          14.7018  -33.5844  -12.5566 N.ar    1  LIG1       -0.3380
      3 N          14.3560  -34.7678  -13.1683 N.ar    1  LIG1       -0.3380
      4 C          14.2438  -35.7274  -12.3013 C.ar    1  LIG1        0.4420
      5 S          14.5448  -35.2801  -10.6827 S.2     1  LIG1       -0.0800
      6 C          15.2062  -32.5858  -10.3021 C.3     1  LIG1        0.1000
      7 C          16.6427  -32.8133   -9.8084 C.3     1  LIG1       -0.2400
      8 C          15.0862  -31.2376  -11.0264 C.3     1  LIG1       -0.2400
      9 N          13.8973  -37.0138  -12.7290 N.am    1  LIG1       -0.4940
     10 C          14.5963  -38.1639  -12.5533 C.2     1  LIG1        0.6900
     11 N          13.9901  -39.2460  -13.0874 N.am    1  LIG1       -0.7300
     12 O          15.6682  -38.2461  -11.9746 O.2     1  LIG1       -0.5700
     13 C          14.5834  -40.5673  -13.0016 C.3     1  LIG1        0.2840
     14 C          15.3651  -40.6815  -14.2935 C.ar    1  LIG1       -0.1430
     15 C          14.9136  -40.0460  -15.4512 C.ar    1  LIG1       -0.1500
     16 C          15.6323  -40.1406  -16.6376 C.ar    1  LIG1       -0.1500
     17 C          16.8187  -40.8815  -16.6843 C.ar    1  LIG1        0.1000
     18 C          17.2828  -41.5057  -15.5192 C.ar    1  LIG1       -0.1500
     19 C          16.5574  -41.4049  -14.3370 C.ar    1  LIG1       -0.1500
     20 N          17.5463  -40.9819  -17.8965 N.pl3   1  LIG1       -0.8380
     21 C          18.7907  -41.7436  -18.0018 C.3     1  LIG1        0.2090
     22 C          19.1414  -41.5568  -19.4769 C.3     1  LIG1       -0.1600
     23 C          17.7660  -41.6454  -20.1344 C.3     1  LIG1       -0.1600
     24 C          16.8963  -40.7989  -19.2000 C.3     1  LIG1        0.2090
     25 H          14.5355  -32.5819   -9.4405 H       1  LIG1        0.0800
     26 H          16.9215  -32.0303   -9.1024 H       1  LIG1        0.0800
     27 H          16.7105  -33.7814   -9.3113 H       1  LIG1        0.0800
     28 H          17.3362  -32.7992  -10.6512 H       1  LIG1        0.0800
     29 H          15.3356  -30.4251  -10.3437 H       1  LIG1        0.0800
     30 H          15.7647  -31.2083  -11.8809 H       1  LIG1        0.0800
     31 H          14.0645  -31.1018  -11.3825 H       1  LIG1        0.0800
     32 H          13.0132  -37.0845  -13.2341 H       1  LIG1        0.3700
     33 H          13.0843  -39.1678  -13.5636 H       1  LIG1        0.3700
     34 H          13.8082  -41.3225  -12.9702 H       1  LIG1        0.0800
     35 H          15.2583  -40.6182  -12.1562 H       1  LIG1        0.0800
     36 H          14.0155  -39.4827  -15.4279 H       1  LIG1        0.1500
     37 H          15.2816  -39.6426  -17.5016 H       1  LIG1        0.1500
     38 H          18.1832  -42.0583  -15.5300 H       1  LIG1        0.1500
     39 H          16.9169  -41.8825  -13.4618 H       1  LIG1        0.1500
     40 H          18.5936  -42.7905  -17.8055 H       1  LIG1        0.0800
     41 H          19.5643  -41.3126  -17.3787 H       1  LIG1        0.0800
     42 H          19.8166  -42.3344  -19.8352 H       1  LIG1        0.0800
     43 H          19.5703  -40.5659  -19.6299 H       1  LIG1        0.0800
     44 H          17.4137  -42.6781  -20.1252 H       1  LIG1        0.0800
     45 H          17.7733  -41.2489  -21.1493 H       1  LIG1        0.0800
     46 H          16.9640  -39.7568  -19.4848 H       1  LIG1        0.0800
     47 H          15.8868  -41.1903  -19.1975 H       1  LIG1        0.0800
@<TRIPOS>BOND
     1     1     2   ar
     2     1     5   ar
     3     1     6    1
     4     2     3   ar
     5     3     4   ar
     6     4     5   ar
     7     4     9    1
     8     6     7    1
     9     6     8    1
    10     6    25    1
    11     7    26    1
    12     7    27    1
    13     7    28    1
    14     8    29    1
    15     8    30    1
    16     8    31    1
    17     9    10   am
    18     9    32    1
    19    10    11   am
    20    10    12    2
    21    11    13    1
    22    11    33    1
    23    13    14    1
    24    13    34    1
    25    13    35    1
    26    14    15   ar
    27    14    19   ar
    28    15    16   ar
    29    15    36    1
    30    16    17   ar
    31    16    37    1
    32    17    18   ar
    33    17    20    1
    34    18    19   ar
    35    18    38    1
    36    19    39    1
    37    20    21    1
    38    20    24    1
    39    21    22    1
    40    21    40    1
    41    21    41    1
    42    22    23    1
    43    22    42    1
    44    22    43    1
    45    23    24    1
    46    23    44    1
    47    23    45    1
    48    24    46    1
    49    24    47    1
@<TRIPOS>SUBSTRUCTURE
     1 LIG1        1 TEMP              0 ****  ****    0 ROOT


##########                                Name:     Z316554572.****
##########                        Cluster_Size:                  10
##########                          Grid_Score:          -44.644577
##########                     Grid_vdw_energy:          -35.613632
##########                      Grid_es_energy:           -9.030943
##########           Internal_energy_repulsive:           10.103449

@<TRIPOS>MOLECULE
Z316554572.****
 39 40 1 0 0
SMALL
USER_CHARGES
****

@<TRIPOS>ATOM
      1 C          19.8899  -40.9330  -10.5476 C.ar    1  LIG1       -0.1500
      2 C          20.9203  -41.3197  -11.3981 C.ar    1  LIG1       -0.1500
      3 C          21.6486  -40.3600  -12.0919 C.ar    1  LIG1       -0.1500
      4 C          21.3445  -39.0115  -11.9353 C.ar    1  LIG1       -0.1500
      5 C          20.3139  -38.6239  -11.0853 C.ar    1  LIG1       -0.1500
      6 C          19.5819  -39.5822  -10.3842 C.ar    1  LIG1       -0.1440
      7 C          18.4712  -39.1532   -9.4354 C.3     1  LIG1        0.0450
      8 C          17.7473  -37.9667  -10.0448 C.2     1  LIG1        0.5690
      9 N          17.0255  -37.1537   -9.2041 N.am    1  LIG1       -0.5470
     10 O          17.7680  -37.7595  -11.2413 O.2     1  LIG1       -0.5700
     11 C          16.2778  -36.0018   -9.5454 C.ar    1  LIG1        0.1170
     12 C          15.0422  -36.1984  -10.1669 C.ar    1  LIG1       -0.1500
     13 C          14.2663  -35.0960  -10.5216 C.ar    1  LIG1       -0.1500
     14 C          14.7201  -33.8051  -10.2605 C.ar    1  LIG1       -0.1500
     15 C          15.9570  -33.6273   -9.6381 C.ar    1  LIG1        0.1170
     16 C          16.7357  -34.7163   -9.2563 C.ar    1  LIG1       -0.1500
     17 N          16.3958  -32.3137   -9.3855 N.am    1  LIG1       -0.5470
     18 C          16.5999  -31.3213  -10.2938 C.2     1  LIG1        0.5690
     19 C          17.0785  -29.9292   -9.9088 C.3     1  LIG1       -0.0990
     20 O          16.4132  -31.6386  -11.4473 O.2     1  LIG1       -0.5700
     21 C          17.7474  -29.2954  -11.1479 C.3     1  LIG1       -0.2400
     22 H          19.3396  -41.6747  -10.0263 H       1  LIG1        0.1500
     23 H          21.1500  -42.3481  -11.5205 H       1  LIG1        0.1500
     24 H          22.4331  -40.6542  -12.7416 H       1  LIG1        0.1500
     25 H          21.8985  -38.2784  -12.4656 H       1  LIG1        0.1500
     26 H          20.0911  -37.5927  -10.9701 H       1  LIG1        0.1500
     27 H          18.8954  -38.8341   -8.4954 H       1  LIG1        0.0800
     28 H          17.7640  -39.9615   -9.3160 H       1  LIG1        0.0800
     29 H          17.0459  -37.4278   -8.2112 H       1  LIG1        0.3700
     30 H          14.6999  -37.1785  -10.3729 H       1  LIG1        0.1500
     31 H          13.3278  -35.2403  -10.9953 H       1  LIG1        0.1500
     32 H          14.1373  -32.9643  -10.5350 H       1  LIG1        0.1500
     33 H          17.6487  -34.5683   -8.7460 H       1  LIG1        0.1500
     34 H          16.5349  -32.0173   -8.4113 H       1  LIG1        0.3700
     35 H          17.8265  -30.0433   -9.1371 H       1  LIG1        0.0800
     36 H          16.2567  -29.3086   -9.5865 H       1  LIG1        0.0800
     37 H          18.0950  -28.2977  -10.8744 H       1  LIG1        0.0800
     38 H          18.5909  -29.9195  -11.4499 H       1  LIG1        0.0800
     39 H          17.0211  -29.2238  -11.9568 H       1  LIG1        0.0800
@<TRIPOS>BOND
     1     1     2   ar
     2     1     6   ar
     3     1    22    1
     4     2     3   ar
     5     2    23    1
     6     3     4   ar
     7     3    24    1
     8     4     5   ar
     9     4    25    1
    10     5     6   ar
    11     5    26    1
    12     6     7    1
    13     7     8    1
    14     7    27    1
    15     7    28    1
    16     8     9   am
    17     8    10    2
    18     9    11    1
    19     9    29    1
    20    11    12   ar
    21    11    16   ar
    22    12    13   ar
    23    12    30    1
    24    13    14   ar
    25    13    31    1
    26    14    15   ar
    27    14    32    1
    28    15    16   ar
    29    15    17    1
    30    16    33    1
    31    17    18   am
    32    17    34    1
    33    18    19    1
    34    18    20    2
    35    19    21    1
    36    19    35    1
    37    19    36    1
    38    21    37    1
    39    21    38    1
    40    21    39    1
@<TRIPOS>SUBSTRUCTURE
     1 LIG1        1 TEMP              0 ****  ****    0 ROOT


##########                                Name:              G1.sdf
##########                        Cluster_Size:                   1
##########                          Grid_Score:          -47.837292
##########                     Grid_vdw_energy:          -45.323765
##########                      Grid_es_energy:           -2.513528
##########           Internal_energy_repulsive:           34.055302

@<TRIPOS>MOLECULE
G1.sdf
 69 72 1 0 0
SMALL
USER_CHARGES
****

@<TRIPOS>ATOM
      1 C          14.8568  -31.7364  -11.2186 C.ar    1  LIG1       -0.0100
      2 C          15.3755  -32.5345  -10.2561 C.ar    1  LIG1       -0.1500
      3 C          15.9521  -33.6308  -10.8981 C.ar    1  LIG1       -0.1500
      4 C          15.7628  -33.4643  -12.2399 C.ar    1  LIG1        0.0550
      5 O          15.0822  -32.2845  -12.4309 O.2     1  LIG1       -0.2800
      6 C          16.1539  -34.3047  -13.3669 C.2     1  LIG1        0.7150
      7 N          16.9010  -35.4238  -13.1299 N.am    1  LIG1       -0.7300
      8 O          15.8303  -34.0964  -14.5361 O.2     1  LIG1       -0.5700
      9 C          17.3307  -36.3196  -14.2333 C.3     1  LIG1        0.2810
     10 C          16.1602  -37.2670  -14.5626 C.2     1  LIG1        0.5690
     11 C          18.5451  -37.1366  -13.7225 C.3     1  LIG1       -0.1600
     12 C          18.2818  -37.6967  -12.3044 C.3     1  LIG1       -0.0800
     13 C          18.7599  -39.1610  -12.2725 C.3     1  LIG1       -0.1600
     14 C          18.5539  -39.7941  -10.8897 C.3     1  LIG1       -0.1600
     15 C          19.2770  -38.9834   -9.8065 C.3     1  LIG1       -0.1600
     16 C          18.8050  -37.5240   -9.8194 C.3     1  LIG1       -0.1600
     17 C          19.0010  -36.8888  -11.2036 C.3     1  LIG1       -0.1600
     18 N          15.9925  -37.5680  -15.8560 N.am    1  LIG1       -0.7300
     19 O          15.3287  -37.6366  -13.7319 O.2     1  LIG1       -0.5700
     20 C          14.9309  -38.4514  -16.3368 C.3     1  LIG1        0.1400
     21 C          15.5726  -39.7794  -16.7802 C.3     1  LIG1        0.2000
     22 C          16.0887  -40.5461  -15.5435 C.3     1  LIG1        0.1960
     23 N          16.4248  -41.8877  -16.0589 N.3     1  LIG1       -0.8490
     24 C          17.5090  -41.8039  -17.0697 C.3     1  LIG1        0.1960
     25 C          17.0451  -40.8776  -18.2260 C.3     1  LIG1        0.1200
     26 O          16.6721  -39.6103  -17.6712 O.3     1  LIG1       -0.5600
     27 S          16.5093  -43.1531  -15.0017 S.O2    1  LIG1        1.4470
     28 C          18.0790  -42.9809  -14.1118 C.ar    1  LIG1       -0.0090
     29 O          15.4473  -43.0334  -14.0677 O.2     1  LIG1       -0.6500
     30 O          16.5510  -44.3551  -15.7580 O.2     1  LIG1       -0.6500
     31 C          18.1455  -42.8267  -12.7152 C.ar    1  LIG1        0.0730
     32 C          19.3942  -42.7084  -12.0941 C.ar    1  LIG1       -0.1500
     33 C          20.5647  -42.7316  -12.8390 C.ar    1  LIG1       -0.1500
     34 C          20.5032  -42.8728  -14.2177 C.ar    1  LIG1       -0.1500
     35 C          19.2699  -42.9965  -14.8473 C.ar    1  LIG1       -0.1500
     36 C          16.9692  -42.7571  -11.8836 C.1     1  LIG1        0.4840
     37 N          16.0644  -42.6732  -11.1887 N.1     1  LIG1       -0.5570
     38 H          14.3420  -30.8125  -11.1374 H       1  LIG1        0.1500
     39 H          15.3458  -32.3539   -9.2121 H       1  LIG1        0.1500
     40 H          16.4456  -34.4425  -10.4294 H       1  LIG1        0.1500
     41 H          16.8007  -35.8501  -12.1926 H       1  LIG1        0.3700
     42 H          17.5818  -35.7582  -15.1229 H       1  LIG1        0.0800
     43 H          19.4276  -36.4949  -13.7015 H       1  LIG1        0.0800
     44 H          18.7313  -37.9591  -14.4132 H       1  LIG1        0.0800
     45 H          17.2092  -37.6896  -12.0974 H       1  LIG1        0.0800
     46 H          19.8206  -39.2044  -12.5265 H       1  LIG1        0.0800
     47 H          18.2042  -39.7431  -13.0091 H       1  LIG1        0.0800
     48 H          18.9403  -40.8146  -10.8959 H       1  LIG1        0.0800
     49 H          17.4861  -39.8296  -10.6620 H       1  LIG1        0.0800
     50 H          20.3531  -39.0174   -9.9855 H       1  LIG1        0.0800
     51 H          19.0752  -39.4219   -8.8276 H       1  LIG1        0.0800
     52 H          19.3662  -36.9549   -9.0773 H       1  LIG1        0.0800
     53 H          17.7466  -37.4852   -9.5529 H       1  LIG1        0.0800
     54 H          20.0687  -36.8405  -11.4250 H       1  LIG1        0.0800
     55 H          18.6080  -35.8725  -11.1651 H       1  LIG1        0.0800
     56 H          16.4211  -36.9353  -16.5291 H       1  LIG1        0.3700
     57 H          14.3930  -37.9804  -17.1618 H       1  LIG1        0.0800
     58 H          14.2274  -38.6523  -15.5275 H       1  LIG1        0.0800
     59 H          14.8057  -40.3703  -17.2863 H       1  LIG1        0.0800
     60 H          15.2852  -40.6053  -14.8221 H       1  LIG1        0.0800
     61 H          16.9715  -40.0528  -15.1560 H       1  LIG1        0.0800
     62 H          17.6983  -42.7844  -17.4877 H       1  LIG1        0.0800
     63 H          18.3940  -41.3719  -16.6177 H       1  LIG1        0.0800
     64 H          16.2007  -41.3334  -18.7478 H       1  LIG1        0.0800
     65 H          17.8652  -40.7427  -18.9312 H       1  LIG1        0.0800
     66 H          19.4529  -42.5911  -11.0413 H       1  LIG1        0.1500
     67 H          21.5060  -42.6367  -12.3568 H       1  LIG1        0.1500
     68 H          21.3962  -42.8877  -14.7904 H       1  LIG1        0.1500
     69 H          19.2335  -43.1075  -15.9035 H       1  LIG1        0.1500
@<TRIPOS>BOND
     1     1     2   ar
     2     1     5   ar
     3     1    38    1
     4     2     3   ar
     5     2    39    1
     6     3     4   ar
     7     3    40    1
     8     4     5   ar
     9     4     6    1
    10     6     7   am
    11     6     8    2
    12     7     9    1
    13     7    41    1
    14     9    10    1
    15     9    11    1
    16     9    42    1
    17    10    18   am
    18    10    19    2
    19    11    12    1
    20    11    43    1
    21    11    44    1
    22    12    13    1
    23    12    17    1
    24    12    45    1
    25    13    14    1
    26    13    46    1
    27    13    47    1
    28    14    15    1
    29    14    48    1
    30    14    49    1
    31    15    16    1
    32    15    50    1
    33    15    51    1
    34    16    17    1
    35    16    52    1
    36    16    53    1
    37    17    54    1
    38    17    55    1
    39    18    20    1
    40    18    56    1
    41    20    21    1
    42    20    57    1
    43    20    58    1
    44    21    22    1
    45    21    26    1
    46    21    59    1
    47    22    23    1
    48    22    60    1
    49    22    61    1
    50    23    24    1
    51    23    27    1
    52    24    25    1
    53    24    62    1
    54    24    63    1
    55    25    26    1
    56    25    64    1
    57    25    65    1
    58    27    28    1
    59    27    29    2
    60    27    30    2
    61    28    31   ar
    62    28    35   ar
    63    31    32   ar
    64    31    36    1
    65    32    33   ar
    66    32    66    1
    67    33    34   ar
    68    33    67    1
    69    34    35   ar
    70    34    68    1
    71    35    69    1
    72    36    37    3
@<TRIPOS>SUBSTRUCTURE
     1 LIG1        1 TEMP              0 ****  ****    0 ROOT


##########                                Name:              G1.sdf
##########                        Cluster_Size:                   2
##########                          Grid_Score:          -45.585972
##########                     Grid_vdw_energy:          -42.100204
##########                      Grid_es_energy:           -3.485768
##########           Internal_energy_repulsive:           26.401878

@<TRIPOS>MOLECULE
G1.sdf
 69 72 1 0 0
SMALL
USER_CHARGES
****

@<TRIPOS>ATOM
      1 C          15.9453  -30.5319  -10.6988 C.ar    1  LIG1       -0.0100
      2 C          16.6577  -31.2890   -9.8318 C.ar    1  LIG1       -0.1500
      3 C          16.4723  -32.6214  -10.2015 C.ar    1  LIG1       -0.1500
      4 C          15.6457  -32.6325  -11.2880 C.ar    1  LIG1        0.0550
      5 O          15.3233  -31.3303  -11.5914 O.2     1  LIG1       -0.2800
      6 C          15.1216  -33.7455  -12.0728 C.2     1  LIG1        0.7150
      7 N          15.8144  -34.9229  -12.0960 N.am    1  LIG1       -0.7300
      8 O          14.0655  -33.7159  -12.7044 O.2     1  LIG1       -0.5700
      9 C          15.3343  -36.0922  -12.8749 C.3     1  LIG1        0.2810
     10 C          15.1070  -37.2590  -11.8937 C.2     1  LIG1        0.5690
     11 C          16.4461  -36.4630  -13.8896 C.3     1  LIG1       -0.1600
     12 C          16.2281  -37.8853  -14.4585 C.3     1  LIG1       -0.0800
     13 C          15.0647  -37.8235  -15.4667 C.3     1  LIG1       -0.1600
     14 C          14.7898  -39.1947  -16.0990 C.3     1  LIG1       -0.1600
     15 C          16.0489  -39.7403  -16.7850 C.3     1  LIG1       -0.1600
     16 C          17.2148  -39.8163  -15.7912 C.3     1  LIG1       -0.1600
     17 C          17.4880  -38.4484  -15.1493 C.3     1  LIG1       -0.1600
     18 N          16.1207  -37.5371  -11.0649 N.am    1  LIG1       -0.7300
     19 O          14.1219  -37.9981  -11.9307 O.2     1  LIG1       -0.5700
     20 C          16.0675  -38.6116  -10.0743 C.3     1  LIG1        0.1400
     21 C          17.5025  -39.1153   -9.8319 C.3     1  LIG1        0.2000
     22 C          18.1378  -39.5412  -11.1731 C.3     1  LIG1        0.1960
     23 N          19.5653  -39.7400  -10.8548 N.3     1  LIG1       -0.8490
     24 C          19.7336  -40.8337   -9.8649 C.3     1  LIG1        0.1960
     25 C          18.9353  -40.4758   -8.5825 C.3     1  LIG1        0.1200
     26 O          17.5718  -40.2323   -8.9493 O.3     1  LIG1       -0.5600
     27 S          20.6730  -39.6862  -12.0780 S.O2    1  LIG1        1.4470
     28 C          20.4521  -41.2038  -13.0442 C.ar    1  LIG1       -0.0090
     29 O          20.3740  -38.5759  -12.9099 O.2     1  LIG1       -0.6500
     30 O          21.9696  -39.7078  -11.4973 O.2     1  LIG1       -0.6500
     31 C          21.4808  -42.1470  -13.2197 C.ar    1  LIG1        0.0730
     32 C          21.2354  -43.3017  -13.9718 C.ar    1  LIG1       -0.1500
     33 C          19.9951  -43.5221  -14.5534 C.ar    1  LIG1       -0.1500
     34 C          18.9810  -42.5893  -14.3918 C.ar    1  LIG1       -0.1500
     35 C          19.2091  -41.4403  -13.6430 C.ar    1  LIG1       -0.1500
     36 C          22.8038  -41.9651  -12.6754 C.1     1  LIG1        0.4840
     37 N          23.8724  -41.8515  -12.2829 N.1     1  LIG1       -0.5570
     38 H          15.8314  -29.4787  -10.7539 H       1  LIG1        0.1500
     39 H          17.2446  -30.9298   -9.0256 H       1  LIG1        0.1500
     40 H          16.8954  -33.4679   -9.7256 H       1  LIG1        0.1500
     41 H          16.4066  -35.1210  -11.2710 H       1  LIG1        0.3700
     42 H          14.4011  -35.8761  -13.3771 H       1  LIG1        0.0800
     43 H          17.4170  -36.4151  -13.3934 H       1  LIG1        0.0800
     44 H          16.4366  -35.7371  -14.7027 H       1  LIG1        0.0800
     45 H          15.9387  -38.5650  -13.6537 H       1  LIG1        0.0800
     46 H          15.3048  -37.1113  -16.2582 H       1  LIG1        0.0800
     47 H          14.1596  -37.4850  -14.9603 H       1  LIG1        0.0800
     48 H          13.9889  -39.1020  -16.8343 H       1  LIG1        0.0800
     49 H          14.4688  -39.8943  -15.3238 H       1  LIG1        0.0800
     50 H          16.3225  -39.0861  -17.6147 H       1  LIG1        0.0800
     51 H          15.8447  -40.7360  -17.1824 H       1  LIG1        0.0800
     52 H          18.1114  -40.1583  -16.3097 H       1  LIG1        0.0800
     53 H          16.9746  -40.5390  -15.0083 H       1  LIG1        0.0800
     54 H          17.8223  -37.7532  -15.9216 H       1  LIG1        0.0800
     55 H          18.2915  -38.5731  -14.4229 H       1  LIG1        0.0800
     56 H          17.0390  -37.1923  -11.3385 H       1  LIG1        0.3700
     57 H          15.4223  -39.4184  -10.4272 H       1  LIG1        0.0800
     58 H          15.6660  -38.2250   -9.1363 H       1  LIG1        0.0800
     59 H          18.0772  -38.2947   -9.3962 H       1  LIG1        0.0800
     60 H          18.0140  -38.7311  -11.8787 H       1  LIG1        0.0800
     61 H          17.6875  -40.4677  -11.5072 H       1  LIG1        0.0800
     62 H          20.7769  -40.9234   -9.5902 H       1  LIG1        0.0800
     63 H          19.3349  -41.7557  -10.2715 H       1  LIG1        0.0800
     64 H          19.3712  -39.5923   -8.1110 H       1  LIG1        0.0800
     65 H          18.9838  -41.3101   -7.8827 H       1  LIG1        0.0800
     66 H          22.0062  -44.0176  -14.1095 H       1  LIG1        0.1500
     67 H          19.8223  -44.3999  -15.1254 H       1  LIG1        0.1500
     68 H          18.0324  -42.7534  -14.8379 H       1  LIG1        0.1500
     69 H          18.4249  -40.7335  -13.5223 H       1  LIG1        0.1500
@<TRIPOS>BOND
     1     1     2   ar
     2     1     5   ar
     3     1    38    1
     4     2     3   ar
     5     2    39    1
     6     3     4   ar
     7     3    40    1
     8     4     5   ar
     9     4     6    1
    10     6     7   am
    11     6     8    2
    12     7     9    1
    13     7    41    1
    14     9    10    1
    15     9    11    1
    16     9    42    1
    17    10    18   am
    18    10    19    2
    19    11    12    1
    20    11    43    1
    21    11    44    1
    22    12    13    1
    23    12    17    1
    24    12    45    1
    25    13    14    1
    26    13    46    1
    27    13    47    1
    28    14    15    1
    29    14    48    1
    30    14    49    1
    31    15    16    1
    32    15    50    1
    33    15    51    1
    34    16    17    1
    35    16    52    1
    36    16    53    1
    37    17    54    1
    38    17    55    1
    39    18    20    1
    40    18    56    1
    41    20    21    1
    42    20    57    1
    43    20    58    1
    44    21    22    1
    45    21    26    1
    46    21    59    1
    47    22    23    1
    48    22    60    1
    49    22    61    1
    50    23    24    1
    51    23    27    1
    52    24    25    1
    53    24    62    1
    54    24    63    1
    55    25    26    1
    56    25    64    1
    57    25    65    1
    58    27    28    1
    59    27    29    2
    60    27    30    2
    61    28    31   ar
    62    28    35   ar
    63    31    32   ar
    64    31    36    1
    65    32    33   ar
    66    32    66    1
    67    33    34   ar
    68    33    67    1
    69    34    35   ar
    70    34    68    1
    71    35    69    1
    72    36    37    3
@<TRIPOS>SUBSTRUCTURE
     1 LIG1        1 TEMP              0 ****  ****    0 ROOT


##########                                Name:              G1.sdf
##########                        Cluster_Size:                   1
##########                          Grid_Score:          -45.086971
##########                     Grid_vdw_energy:          -42.616451
##########                      Grid_es_energy:           -2.470522
##########           Internal_energy_repulsive:           16.644379

@<TRIPOS>MOLECULE
G1.sdf
 69 72 1 0 0
SMALL
USER_CHARGES
****

@<TRIPOS>ATOM
      1 C          16.0922  -37.0268  -17.2263 C.ar    1  LIG1       -0.0100
      2 C          17.0736  -36.1384  -17.5090 C.ar    1  LIG1       -0.1500
      3 C          17.7469  -35.8764  -16.3155 C.ar    1  LIG1       -0.1500
      4 C          17.1481  -36.6175  -15.3377 C.ar    1  LIG1        0.0550
      5 O          16.1214  -37.3303  -15.9118 O.2     1  LIG1       -0.2800
      6 C          17.4397  -36.7236  -13.9118 C.2     1  LIG1        0.7150
      7 N          16.5658  -37.3974  -13.1060 N.am    1  LIG1       -0.7300
      8 O          18.4487  -36.2703  -13.3717 O.2     1  LIG1       -0.5700
      9 C          16.8055  -37.5405  -11.6478 C.3     1  LIG1        0.2810
     10 C          16.7618  -39.0419  -11.3017 C.2     1  LIG1        0.5690
     11 C          15.6619  -36.7947  -10.9134 C.3     1  LIG1       -0.1600
     12 C          15.8424  -35.2614  -11.0154 C.3     1  LIG1       -0.0800
     13 C          14.5109  -34.6545  -11.4977 C.3     1  LIG1       -0.1600
     14 C          14.5927  -33.1260  -11.6094 C.3     1  LIG1       -0.1600
     15 C          14.9967  -32.5027  -10.2670 C.3     1  LIG1       -0.1600
     16 C          16.3261  -33.0906   -9.7775 C.3     1  LIG1       -0.1600
     17 C          16.2519  -34.6207   -9.6724 C.3     1  LIG1       -0.1600
     18 N          17.7516  -39.4956  -10.5232 N.am    1  LIG1       -0.7300
     19 O          15.9592  -39.8328  -11.8002 O.2     1  LIG1       -0.5700
     20 C          17.8576  -40.8922  -10.1027 C.3     1  LIG1        0.1400
     21 C          19.3496  -41.2716  -10.0620 C.3     1  LIG1        0.2000
     22 C          19.9795  -41.0558  -11.4550 C.3     1  LIG1        0.1960
     23 N          21.4313  -41.1879  -11.2243 N.3     1  LIG1       -0.8490
     24 C          21.7630  -42.5531  -10.7441 C.3     1  LIG1        0.1960
     25 C          20.9771  -42.8277   -9.4338 C.3     1  LIG1        0.1200
     26 O          19.5817  -42.6280   -9.6905 O.3     1  LIG1       -0.5600
     27 S          22.4785  -40.5235  -12.3143 S.O2    1  LIG1        1.4470
     28 C          22.4786  -41.6126  -13.7632 C.ar    1  LIG1       -0.0090
     29 O          21.9783  -39.2543  -12.7057 O.2     1  LIG1       -0.6500
     30 O          23.7781  -40.5391  -11.7402 O.2     1  LIG1       -0.6500
     31 C          23.6412  -42.2512  -14.2312 C.ar    1  LIG1        0.0730
     32 C          23.5645  -43.0864  -15.3518 C.ar    1  LIG1       -0.1500
     33 C          22.3597  -43.2840  -16.0111 C.ar    1  LIG1       -0.1500
     34 C          21.2127  -42.6477  -15.5592 C.ar    1  LIG1       -0.1500
     35 C          21.2732  -41.8194  -14.4443 C.ar    1  LIG1       -0.1500
     36 C          24.9327  -42.0623  -13.6179 C.1     1  LIG1        0.4840
     37 N          25.9798  -41.9237  -13.1785 N.1     1  LIG1       -0.5570
     38 H          15.3695  -37.4732  -17.8617 H       1  LIG1        0.1500
     39 H          17.2854  -35.7239  -18.4613 H       1  LIG1        0.1500
     40 H          18.5708  -35.2222  -16.1920 H       1  LIG1        0.1500
     41 H          15.9979  -38.1324  -13.5617 H       1  LIG1        0.3700
     42 H          17.7734  -37.1489  -11.3662 H       1  LIG1        0.0800
     43 H          15.6555  -37.0905   -9.8629 H       1  LIG1        0.0800
     44 H          14.7103  -37.0827  -11.3602 H       1  LIG1        0.0800
     45 H          16.6067  -35.0278  -11.7603 H       1  LIG1        0.0800
     46 H          13.7157  -34.9154  -10.7969 H       1  LIG1        0.0800
     47 H          14.2564  -35.0628  -12.4768 H       1  LIG1        0.0800
     48 H          13.6220  -32.7313  -11.9138 H       1  LIG1        0.0800
     49 H          15.3298  -32.8564  -12.3693 H       1  LIG1        0.0800
     50 H          14.2192  -32.6998   -9.5269 H       1  LIG1        0.0800
     51 H          15.0979  -31.4222  -10.3829 H       1  LIG1        0.0800
     52 H          16.5695  -32.6721   -8.8001 H       1  LIG1        0.0800
     53 H          17.1202  -32.8164  -10.4754 H       1  LIG1        0.0800
     54 H          15.5258  -34.8899   -8.9033 H       1  LIG1        0.0800
     55 H          17.2332  -34.9840   -9.3659 H       1  LIG1        0.0800
     56 H          18.5934  -38.9243  -10.4793 H       1  LIG1        0.3700
     57 H          17.3072  -41.5363  -10.7912 H       1  LIG1        0.0800
     58 H          17.4370  -41.0062   -9.1024 H       1  LIG1        0.0800
     59 H          19.8406  -40.6246   -9.3314 H       1  LIG1        0.0800
     60 H          19.7356  -40.0553  -11.7854 H       1  LIG1        0.0800
     61 H          19.6280  -41.8240  -12.1325 H       1  LIG1        0.0800
     62 H          22.8192  -42.6154  -10.5149 H       1  LIG1        0.0800
     63 H          21.4596  -43.2824  -11.4858 H       1  LIG1        0.0800
     64 H          21.3244  -42.1543   -8.6470 H       1  LIG1        0.0800
     65 H          21.1488  -43.8571   -9.1191 H       1  LIG1        0.0800
     66 H          24.4370  -43.5711  -15.7115 H       1  LIG1        0.1500
     67 H          22.3149  -43.9167  -16.8628 H       1  LIG1        0.1500
     68 H          20.2905  -42.7943  -16.0631 H       1  LIG1        0.1500
     69 H          20.3885  -41.3392  -14.1041 H       1  LIG1        0.1500
@<TRIPOS>BOND
     1     1     2   ar
     2     1     5   ar
     3     1    38    1
     4     2     3   ar
     5     2    39    1
     6     3     4   ar
     7     3    40    1
     8     4     5   ar
     9     4     6    1
    10     6     7   am
    11     6     8    2
    12     7     9    1
    13     7    41    1
    14     9    10    1
    15     9    11    1
    16     9    42    1
    17    10    18   am
    18    10    19    2
    19    11    12    1
    20    11    43    1
    21    11    44    1
    22    12    13    1
    23    12    17    1
    24    12    45    1
    25    13    14    1
    26    13    46    1
    27    13    47    1
    28    14    15    1
    29    14    48    1
    30    14    49    1
    31    15    16    1
    32    15    50    1
    33    15    51    1
    34    16    17    1
    35    16    52    1
    36    16    53    1
    37    17    54    1
    38    17    55    1
    39    18    20    1
    40    18    56    1
    41    20    21    1
    42    20    57    1
    43    20    58    1
    44    21    22    1
    45    21    26    1
    46    21    59    1
    47    22    23    1
    48    22    60    1
    49    22    61    1
    50    23    24    1
    51    23    27    1
    52    24    25    1
    53    24    62    1
    54    24    63    1
    55    25    26    1
    56    25    64    1
    57    25    65    1
    58    27    28    1
    59    27    29    2
    60    27    30    2
    61    28    31   ar
    62    28    35   ar
    63    31    32   ar
    64    31    36    1
    65    32    33   ar
    66    32    66    1
    67    33    34   ar
    68    33    67    1
    69    34    35   ar
    70    34    68    1
    71    35    69    1
    72    36    37    3
@<TRIPOS>SUBSTRUCTURE
     1 LIG1        1 TEMP              0 ****  ****    0 ROOT


##########                                Name:              G1.sdf
##########                        Cluster_Size:                   2
##########                          Grid_Score:          -44.171871
##########                     Grid_vdw_energy:          -40.157673
##########                      Grid_es_energy:           -4.014198
##########           Internal_energy_repulsive:           18.299513

@<TRIPOS>MOLECULE
G1.sdf
 69 72 1 0 0
SMALL
USER_CHARGES
****

@<TRIPOS>ATOM
      1 C          15.9175  -30.7573  -11.2413 C.ar    1  LIG1       -0.0100
      2 C          16.3256  -30.8979   -9.9583 C.ar    1  LIG1       -0.1500
      3 C          16.5191  -32.2615   -9.7358 C.ar    1  LIG1       -0.1500
      4 C          16.2185  -32.9116  -10.8981 C.ar    1  LIG1        0.0550
      5 O          15.8464  -31.9699  -11.8290 O.2     1  LIG1       -0.2800
      6 C          16.2415  -34.3334  -11.2258 C.2     1  LIG1        0.7150
      7 N          17.4405  -34.9881  -11.2481 N.am    1  LIG1       -0.7300
      8 O          15.2402  -35.0106  -11.4585 O.2     1  LIG1       -0.5700
      9 C          17.5309  -36.4338  -11.5741 C.3     1  LIG1        0.2810
     10 C          18.7520  -37.0147  -10.8342 C.2     1  LIG1        0.5690
     11 C          17.7345  -36.5530  -13.1062 C.3     1  LIG1       -0.1600
     12 C          16.7808  -37.6092  -13.7136 C.3     1  LIG1       -0.0800
     13 C          16.9586  -37.5899  -15.2438 C.3     1  LIG1       -0.1600
     14 C          16.0598  -38.6265  -15.9316 C.3     1  LIG1       -0.1600
     15 C          16.3388  -40.0343  -15.3896 C.3     1  LIG1       -0.1600
     16 C          16.1570  -40.0721  -13.8670 C.3     1  LIG1       -0.1600
     17 C          17.0481  -39.0305  -13.1749 C.3     1  LIG1       -0.1600
     18 N          18.4987  -37.6295   -9.6725 N.am    1  LIG1       -0.7300
     19 O          19.9166  -36.8279  -11.1905 O.2     1  LIG1       -0.5700
     20 C          19.5436  -38.2342   -8.8472 C.3     1  LIG1        0.1400
     21 C          19.7677  -39.6779   -9.3342 C.3     1  LIG1        0.2000
     22 C          20.3622  -39.6600  -10.7589 C.3     1  LIG1        0.1960
     23 N          20.7762  -41.0560  -11.0001 N.3     1  LIG1       -0.8490
     24 C          19.6010  -41.9629  -10.9721 C.3     1  LIG1        0.1960
     25 C          18.9016  -41.8339   -9.5922 C.3     1  LIG1        0.1200
     26 O          18.5741  -40.4558   -9.3759 O.3     1  LIG1       -0.5600
     27 S          21.9092  -41.3656  -12.1605 S.O2    1  LIG1        1.4470
     28 C          23.1628  -40.0638  -12.0212 C.ar    1  LIG1       -0.0090
     29 O          22.5222  -42.6128  -11.8722 O.2     1  LIG1       -0.6500
     30 O          21.2807  -41.2504  -13.4295 O.2     1  LIG1       -0.6500
     31 C          24.2939  -40.1862  -11.1940 C.ar    1  LIG1        0.0730
     32 C          25.2260  -39.1433  -11.1433 C.ar    1  LIG1       -0.1500
     33 C          25.0431  -37.9882  -11.8901 C.ar    1  LIG1       -0.1500
     34 C          23.9235  -37.8588  -12.6990 C.ar    1  LIG1       -0.1500
     35 C          22.9921  -38.8890  -12.7631 C.ar    1  LIG1       -0.1500
     36 C          24.5285  -41.3416  -10.3634 C.1     1  LIG1        0.4840
     37 N          24.7428  -42.2270   -9.6715 N.1     1  LIG1       -0.5570
     38 H          15.6713  -29.8829  -11.7891 H       1  LIG1        0.1500
     39 H          16.4694  -30.1141   -9.2594 H       1  LIG1        0.1500
     40 H          16.8399  -32.7089   -8.8308 H       1  LIG1        0.1500
     41 H          18.1866  -34.5956  -10.6483 H       1  LIG1        0.3700
     42 H          16.6464  -36.9671  -11.2532 H       1  LIG1        0.0800
     43 H          18.7683  -36.8366  -13.3111 H       1  LIG1        0.0800
     44 H          17.5449  -35.5816  -13.5629 H       1  LIG1        0.0800
     45 H          15.7447  -37.3420  -13.4930 H       1  LIG1        0.0800
     46 H          17.9995  -37.8041  -15.4932 H       1  LIG1        0.0800
     47 H          16.7078  -36.6004  -15.6286 H       1  LIG1        0.0800
     48 H          16.2433  -38.6102  -17.0072 H       1  LIG1        0.0800
     49 H          15.0120  -38.3725  -15.7553 H       1  LIG1        0.0800
     50 H          17.3612  -40.3233  -15.6395 H       1  LIG1        0.0800
     51 H          15.6547  -40.7460  -15.8550 H       1  LIG1        0.0800
     52 H          16.4082  -41.0667  -13.4965 H       1  LIG1        0.0800
     53 H          15.1118  -39.8693  -13.6237 H       1  LIG1        0.0800
     54 H          18.0949  -39.2922  -13.3393 H       1  LIG1        0.0800
     55 H          16.8436  -39.0720  -12.1048 H       1  LIG1        0.0800
     56 H          17.6132  -37.4043   -9.2228 H       1  LIG1        0.3700
     57 H          19.2517  -38.2152   -7.7954 H       1  LIG1        0.0800
     58 H          20.4725  -37.6740   -8.9644 H       1  LIG1        0.0800
     59 H          20.4693  -40.1584   -8.6483 H       1  LIG1        0.0800
     60 H          21.2207  -39.0023  -10.7593 H       1  LIG1        0.0800
     61 H          19.5975  -39.3601  -11.4648 H       1  LIG1        0.0800
     62 H          19.9264  -42.9895  -11.0827 H       1  LIG1        0.0800
     63 H          18.8977  -41.6694  -11.7424 H       1  LIG1        0.0800
     64 H          19.5657  -42.2001   -8.8061 H       1  LIG1        0.0800
     65 H          17.9904  -42.4321   -9.5922 H       1  LIG1        0.0800
     66 H          26.0814  -39.2276  -10.5214 H       1  LIG1        0.1500
     67 H          25.7552  -37.2020  -11.8399 H       1  LIG1        0.1500
     68 H          23.7792  -36.9755  -13.2688 H       1  LIG1        0.1500
     69 H          22.1395  -38.7816  -13.3881 H       1  LIG1        0.1500
@<TRIPOS>BOND
     1     1     2   ar
     2     1     5   ar
     3     1    38    1
     4     2     3   ar
     5     2    39    1
     6     3     4   ar
     7     3    40    1
     8     4     5   ar
     9     4     6    1
    10     6     7   am
    11     6     8    2
    12     7     9    1
    13     7    41    1
    14     9    10    1
    15     9    11    1
    16     9    42    1
    17    10    18   am
    18    10    19    2
    19    11    12    1
    20    11    43    1
    21    11    44    1
    22    12    13    1
    23    12    17    1
    24    12    45    1
    25    13    14    1
    26    13    46    1
    27    13    47    1
    28    14    15    1
    29    14    48    1
    30    14    49    1
    31    15    16    1
    32    15    50    1
    33    15    51    1
    34    16    17    1
    35    16    52    1
    36    16    53    1
    37    17    54    1
    38    17    55    1
    39    18    20    1
    40    18    56    1
    41    20    21    1
    42    20    57    1
    43    20    58    1
    44    21    22    1
    45    21    26    1
    46    21    59    1
    47    22    23    1
    48    22    60    1
    49    22    61    1
    50    23    24    1
    51    23    27    1
    52    24    25    1
    53    24    62    1
    54    24    63    1
    55    25    26    1
    56    25    64    1
    57    25    65    1
    58    27    28    1
    59    27    29    2
    60    27    30    2
    61    28    31   ar
    62    28    35   ar
    63    31    32   ar
    64    31    36    1
    65    32    33   ar
    66    32    66    1
    67    33    34   ar
    68    33    67    1
    69    34    35   ar
    70    34    68    1
    71    35    69    1
    72    36    37    3
@<TRIPOS>SUBSTRUCTURE
     1 LIG1        1 TEMP              0 ****  ****    0 ROOT


##########                                Name:              G1.sdf
##########                        Cluster_Size:                   1
##########                          Grid_Score:          -43.536648
##########                     Grid_vdw_energy:          -44.905800
##########                      Grid_es_energy:            1.369153
##########           Internal_energy_repulsive:           37.661266

@<TRIPOS>MOLECULE
G1.sdf
 69 72 1 0 0
SMALL
USER_CHARGES
****

@<TRIPOS>ATOM
      1 C          16.8899  -29.2973  -10.3773 C.ar    1  LIG1       -0.0100
      2 C          17.7995  -29.8381  -11.2214 C.ar    1  LIG1       -0.1500
      3 C          17.3796  -31.1392  -11.4992 C.ar    1  LIG1       -0.1500
      4 C          16.2208  -31.3504  -10.8089 C.ar    1  LIG1        0.0550
      5 O          15.9226  -30.2010  -10.1149 O.2     1  LIG1       -0.2800
      6 C          15.3617  -32.5274  -10.7304 C.2     1  LIG1        0.7150
      7 N          15.5683  -33.5569  -11.6046 N.am    1  LIG1       -0.7300
      8 O          14.4661  -32.6817   -9.9002 O.2     1  LIG1       -0.5700
      9 C          14.7287  -34.7812  -11.5761 C.3     1  LIG1        0.2810
     10 C          15.4473  -35.8329  -10.7080 C.2     1  LIG1        0.5690
     11 C          14.6047  -35.2937  -13.0339 C.3     1  LIG1       -0.1600
     12 C          15.9178  -35.9658  -13.5008 C.3     1  LIG1       -0.0800
     13 C          15.7834  -36.2860  -15.0019 C.3     1  LIG1       -0.1600
     14 C          17.0553  -36.9409  -15.5575 C.3     1  LIG1       -0.1600
     15 C          18.2775  -36.0443  -15.3206 C.3     1  LIG1       -0.1600
     16 C          18.4303  -35.7238  -13.8284 C.3     1  LIG1       -0.1600
     17 C          17.1568  -35.0761  -13.2658 C.3     1  LIG1       -0.1600
     18 N          16.3856  -35.3669   -9.8749 N.am    1  LIG1       -0.7300
     19 O          15.2903  -37.0478  -10.8404 O.2     1  LIG1       -0.5700
     20 C          17.1594  -36.2307   -8.9839 C.3     1  LIG1        0.1400
     21 C          18.0953  -37.0980   -9.8462 C.3     1  LIG1        0.2000
     22 C          17.9015  -38.5872   -9.4878 C.3     1  LIG1        0.1960
     23 N          18.6322  -39.3155  -10.5433 N.3     1  LIG1       -0.8490
     24 C          20.0793  -38.9867  -10.5004 C.3     1  LIG1        0.1960
     25 C          20.2503  -37.4542  -10.6793 C.3     1  LIG1        0.1200
     26 O          19.4762  -36.7901   -9.6730 O.3     1  LIG1       -0.5600
     27 S          18.2512  -40.8952  -10.8360 S.O2    1  LIG1        1.4470
     28 C          16.6139  -40.8979  -11.6135 C.ar    1  LIG1       -0.0090
     29 O          19.1894  -41.4223  -11.7614 O.2     1  LIG1       -0.6500
     30 O          18.1560  -41.5628   -9.5854 O.2     1  LIG1       -0.6500
     31 C          16.4238  -40.6292  -12.9811 C.ar    1  LIG1        0.0730
     32 C          15.1304  -40.6578  -13.5153 C.ar    1  LIG1       -0.1500
     33 C          14.0344  -40.9377  -12.7117 C.ar    1  LIG1       -0.1500
     34 C          14.2162  -41.1927  -11.3602 C.ar    1  LIG1       -0.1500
     35 C          15.4959  -41.1728  -10.8172 C.ar    1  LIG1       -0.1500
     36 C          17.5121  -40.2949  -13.8665 C.1     1  LIG1        0.4840
     37 N          18.3405  -40.0028  -14.5993 N.1     1  LIG1       -0.5570
     38 H          16.8518  -28.3318   -9.9395 H       1  LIG1        0.1500
     39 H          18.6660  -29.3571  -11.5971 H       1  LIG1        0.1500
     40 H          17.8706  -31.8345  -12.1297 H       1  LIG1        0.1500
     41 H          16.5295  -33.6567  -11.9741 H       1  LIG1        0.3700
     42 H          13.7565  -34.5836  -11.1457 H       1  LIG1        0.0800
     43 H          14.3722  -34.4546  -13.6920 H       1  LIG1        0.0800
     44 H          13.7863  -36.0117  -13.0859 H       1  LIG1        0.0800
     45 H          16.0600  -36.9090  -12.9682 H       1  LIG1        0.0800
     46 H          15.5892  -35.3655  -15.5556 H       1  LIG1        0.0800
     47 H          14.9444  -36.9659  -15.1569 H       1  LIG1        0.0800
     48 H          16.9366  -37.1149  -16.6282 H       1  LIG1        0.0800
     49 H          17.2126  -37.9036  -15.0656 H       1  LIG1        0.0800
     50 H          18.1596  -35.1149  -15.8804 H       1  LIG1        0.0800
     51 H          19.1758  -36.5514  -15.6772 H       1  LIG1        0.0800
     52 H          19.2734  -35.0461  -13.6878 H       1  LIG1        0.0800
     53 H          18.6365  -36.6460  -13.2809 H       1  LIG1        0.0800
     54 H          17.0073  -34.1079  -13.7471 H       1  LIG1        0.0800
     55 H          17.3065  -34.9137  -12.1981 H       1  LIG1        0.0800
     56 H          16.7662  -34.4468  -10.0882 H       1  LIG1        0.3700
     57 H          16.4900  -36.8511   -8.3848 H       1  LIG1        0.0800
     58 H          17.7641  -35.6175   -8.3140 H       1  LIG1        0.0800
     59 H          17.8338  -36.9343  -10.8942 H       1  LIG1        0.0800
     60 H          16.8444  -38.8112   -9.5320 H       1  LIG1        0.0800
     61 H          18.3366  -38.7836   -8.5157 H       1  LIG1        0.0800
     62 H          20.5913  -39.4741  -11.3205 H       1  LIG1        0.0800
     63 H          20.4869  -39.2675   -9.5365 H       1  LIG1        0.0800
     64 H          19.9184  -37.1598  -11.6775 H       1  LIG1        0.0800
     65 H          21.3023  -37.1927  -10.5654 H       1  LIG1        0.0800
     66 H          14.9786  -40.4556  -14.5457 H       1  LIG1        0.1500
     67 H          13.0575  -40.9522  -13.1277 H       1  LIG1        0.1500
     68 H          13.3799  -41.4039  -10.7424 H       1  LIG1        0.1500
     69 H          15.6250  -41.3726   -9.7815 H       1  LIG1        0.1500
@<TRIPOS>BOND
     1     1     2   ar
     2     1     5   ar
     3     1    38    1
     4     2     3   ar
     5     2    39    1
     6     3     4   ar
     7     3    40    1
     8     4     5   ar
     9     4     6    1
    10     6     7   am
    11     6     8    2
    12     7     9    1
    13     7    41    1
    14     9    10    1
    15     9    11    1
    16     9    42    1
    17    10    18   am
    18    10    19    2
    19    11    12    1
    20    11    43    1
    21    11    44    1
    22    12    13    1
    23    12    17    1
    24    12    45    1
    25    13    14    1
    26    13    46    1
    27    13    47    1
    28    14    15    1
    29    14    48    1
    30    14    49    1
    31    15    16    1
    32    15    50    1
    33    15    51    1
    34    16    17    1
    35    16    52    1
    36    16    53    1
    37    17    54    1
    38    17    55    1
    39    18    20    1
    40    18    56    1
    41    20    21    1
    42    20    57    1
    43    20    58    1
    44    21    22    1
    45    21    26    1
    46    21    59    1
    47    22    23    1
    48    22    60    1
    49    22    61    1
    50    23    24    1
    51    23    27    1
    52    24    25    1
    53    24    62    1
    54    24    63    1
    55    25    26    1
    56    25    64    1
    57    25    65    1
    58    27    28    1
    59    27    29    2
    60    27    30    2
    61    28    31   ar
    62    28    35   ar
    63    31    32   ar
    64    31    36    1
    65    32    33   ar
    66    32    66    1
    67    33    34   ar
    68    33    67    1
    69    34    35   ar
    70    34    68    1
    71    35    69    1
    72    36    37    3
@<TRIPOS>SUBSTRUCTURE
     1 LIG1        1 TEMP              0 ****  ****    0 ROOT


##########                                Name:              G1.sdf
##########                        Cluster_Size:                   1
##########                          Grid_Score:          -43.414478
##########                     Grid_vdw_energy:          -44.771816
##########                      Grid_es_energy:            1.357340
##########           Internal_energy_repulsive:           26.415449

@<TRIPOS>MOLECULE
G1.sdf
 69 72 1 0 0
SMALL
USER_CHARGES
****

@<TRIPOS>ATOM
      1 C          16.1952  -30.4980  -11.1908 C.ar    1  LIG1       -0.0100
      2 C          16.7348  -30.9625  -10.0396 C.ar    1  LIG1       -0.1500
      3 C          16.5349  -32.3431  -10.0199 C.ar    1  LIG1       -0.1500
      4 C          15.8738  -32.6764  -11.1669 C.ar    1  LIG1        0.0550
      5 O          15.6672  -31.5246  -11.8896 O.2     1  LIG1       -0.2800
      6 C          15.4106  -33.9710  -11.6556 C.2     1  LIG1        0.7150
      7 N          16.3007  -35.0044  -11.7378 N.am    1  LIG1       -0.7300
      8 O          14.2485  -34.2188  -11.9772 O.2     1  LIG1       -0.5700
      9 C          15.8918  -36.3454  -12.2266 C.3     1  LIG1        0.2810
     10 C          16.0609  -37.3480  -11.0680 C.2     1  LIG1        0.5690
     11 C          16.8382  -36.7226  -13.3951 C.3     1  LIG1       -0.1600
     12 C          16.0827  -37.5136  -14.4895 C.3     1  LIG1       -0.0800
     13 C          16.8704  -37.3784  -15.8066 C.3     1  LIG1       -0.1600
     14 C          16.1999  -38.1527  -16.9496 C.3     1  LIG1       -0.1600
     15 C          16.0412  -39.6342  -16.5840 C.3     1  LIG1       -0.1600
     16 C          15.2506  -39.7860  -15.2784 C.3     1  LIG1       -0.1600
     17 C          15.9129  -39.0058  -14.1337 C.3     1  LIG1       -0.1600
     18 N          17.3062  -37.7854  -10.8451 N.am    1  LIG1       -0.7300
     19 O          15.1156  -37.8416  -10.4508 O.2     1  LIG1       -0.5700
     20 C          17.6381  -38.7377   -9.7860 C.3     1  LIG1        0.1400
     21 C          17.3128  -40.1552  -10.2927 C.3     1  LIG1        0.2000
     22 C          18.2730  -40.5298  -11.4422 C.3     1  LIG1        0.1960
     23 N          18.0470  -41.9732  -11.6518 N.3     1  LIG1       -0.8490
     24 C          16.6485  -42.2273  -12.0807 C.3     1  LIG1        0.1960
     25 C          15.6842  -41.6779  -10.9952 C.3     1  LIG1        0.1200
     26 O          15.9813  -40.2925  -10.7825 O.3     1  LIG1       -0.5600
     27 S          19.2146  -42.8649  -12.4053 S.O2    1  LIG1        1.4470
     28 C          20.6960  -42.7629  -11.3658 C.ar    1  LIG1       -0.0090
     29 O          18.7900  -44.2184  -12.4516 O.2     1  LIG1       -0.6500
     30 O          19.4988  -42.2503  -13.6544 O.2     1  LIG1       -0.6500
     31 C          21.9231  -42.2664  -11.8418 C.ar    1  LIG1        0.0730
     32 C          23.0237  -42.2085  -10.9789 C.ar    1  LIG1       -0.1500
     33 C          22.9218  -42.6430   -9.6651 C.ar    1  LIG1       -0.1500
     34 C          21.7164  -43.1433   -9.1946 C.ar    1  LIG1       -0.1500
     35 C          20.6136  -43.2019  -10.0392 C.ar    1  LIG1       -0.1500
     36 C          22.1106  -41.8326  -13.2043 C.1     1  LIG1        0.4840
     37 N          22.3112  -41.5005  -14.2805 N.1     1  LIG1       -0.5570
     38 H          16.1458  -29.5099  -11.5736 H       1  LIG1        0.1500
     39 H          17.2177  -30.3805   -9.2969 H       1  LIG1        0.1500
     40 H          16.8403  -33.0091   -9.2548 H       1  LIG1        0.1500
     41 H          17.1045  -34.9679  -11.0874 H       1  LIG1        0.3700
     42 H          14.8573  -36.3526  -12.5416 H       1  LIG1        0.0800
     43 H          17.6605  -37.3289  -13.0111 H       1  LIG1        0.0800
     44 H          17.2515  -35.8088  -13.8220 H       1  LIG1        0.0800
     45 H          15.0931  -37.0775  -14.6443 H       1  LIG1        0.0800
     46 H          17.8832  -37.7609  -15.6673 H       1  LIG1        0.0800
     47 H          16.9341  -36.3263  -16.0881 H       1  LIG1        0.0800
     48 H          16.8068  -38.0661  -17.8524 H       1  LIG1        0.0800
     49 H          15.2161  -37.7229  -17.1512 H       1  LIG1        0.0800
     50 H          17.0274  -40.0861  -16.4648 H       1  LIG1        0.0800
     51 H          15.5176  -40.1537  -17.3884 H       1  LIG1        0.0800
     52 H          15.1924  -40.8417  -15.0106 H       1  LIG1        0.0800
     53 H          14.2348  -39.4133  -15.4268 H       1  LIG1        0.0800
     54 H          16.8900  -39.4441  -13.9229 H       1  LIG1        0.0800
     55 H          15.2860  -39.1125  -13.2481 H       1  LIG1        0.0800
     56 H          17.9678  -37.6835  -11.6125 H       1  LIG1        0.3700
     57 H          17.0749  -38.5056   -8.8800 H       1  LIG1        0.0800
     58 H          18.7043  -38.6790   -9.5620 H       1  LIG1        0.0800
     59 H          17.4475  -40.8486   -9.4594 H       1  LIG1        0.0800
     60 H          19.2860  -40.3469  -11.1104 H       1  LIG1        0.0800
     61 H          18.0092  -39.9681  -12.3298 H       1  LIG1        0.0800
     62 H          16.4780  -43.2930  -12.1651 H       1  LIG1        0.0800
     63 H          16.4532  -41.7048  -13.0097 H       1  LIG1        0.0800
     64 H          15.8083  -42.2451  -10.0700 H       1  LIG1        0.0800
     65 H          14.6554  -41.7841  -11.3394 H       1  LIG1        0.0800
     66 H          23.9529  -41.8360  -11.3304 H       1  LIG1        0.1500
     67 H          23.7651  -42.5980   -9.0213 H       1  LIG1        0.1500
     68 H          21.6362  -43.4793   -8.1915 H       1  LIG1        0.1500
     69 H          19.6939  -43.5837   -9.6684 H       1  LIG1        0.1500
@<TRIPOS>BOND
     1     1     2   ar
     2     1     5   ar
     3     1    38    1
     4     2     3   ar
     5     2    39    1
     6     3     4   ar
     7     3    40    1
     8     4     5   ar
     9     4     6    1
    10     6     7   am
    11     6     8    2
    12     7     9    1
    13     7    41    1
    14     9    10    1
    15     9    11    1
    16     9    42    1
    17    10    18   am
    18    10    19    2
    19    11    12    1
    20    11    43    1
    21    11    44    1
    22    12    13    1
    23    12    17    1
    24    12    45    1
    25    13    14    1
    26    13    46    1
    27    13    47    1
    28    14    15    1
    29    14    48    1
    30    14    49    1
    31    15    16    1
    32    15    50    1
    33    15    51    1
    34    16    17    1
    35    16    52    1
    36    16    53    1
    37    17    54    1
    38    17    55    1
    39    18    20    1
    40    18    56    1
    41    20    21    1
    42    20    57    1
    43    20    58    1
    44    21    22    1
    45    21    26    1
    46    21    59    1
    47    22    23    1
    48    22    60    1
    49    22    61    1
    50    23    24    1
    51    23    27    1
    52    24    25    1
    53    24    62    1
    54    24    63    1
    55    25    26    1
    56    25    64    1
    57    25    65    1
    58    27    28    1
    59    27    29    2
    60    27    30    2
    61    28    31   ar
    62    28    35   ar
    63    31    32   ar
    64    31    36    1
    65    32    33   ar
    66    32    66    1
    67    33    34   ar
    68    33    67    1
    69    34    35   ar
    70    34    68    1
    71    35    69    1
    72    36    37    3
@<TRIPOS>SUBSTRUCTURE
     1 LIG1        1 TEMP              0 ****  ****    0 ROOT


##########                                Name:              G1.sdf
##########                        Cluster_Size:                   1
##########                          Grid_Score:          -43.155220
##########                     Grid_vdw_energy:          -37.050369
##########                      Grid_es_energy:           -6.104850
##########           Internal_energy_repulsive:           46.417427

@<TRIPOS>MOLECULE
G1.sdf
 69 72 1 0 0
SMALL
USER_CHARGES
****

@<TRIPOS>ATOM
      1 C          16.8665  -29.4546  -11.3439 C.ar    1  LIG1       -0.0100
      2 C          16.6436  -29.5454  -10.0118 C.ar    1  LIG1       -0.1500
      3 C          16.3948  -30.8883   -9.7274 C.ar    1  LIG1       -0.1500
      4 C          16.4731  -31.5762  -10.9041 C.ar    1  LIG1        0.0550
      5 O          16.7674  -30.6785  -11.9037 O.2     1  LIG1       -0.2800
      6 C          16.2957  -32.9963  -11.1890 C.2     1  LIG1        0.7150
      7 N          15.7845  -33.8077  -10.2158 N.am    1  LIG1       -0.7300
      8 O          16.5472  -33.5262  -12.2713 O.2     1  LIG1       -0.5700
      9 C          15.5799  -35.2606  -10.4432 C.3     1  LIG1        0.2810
     10 C          16.9589  -35.9485  -10.4068 C.2     1  LIG1        0.5690
     11 C          14.9429  -35.4262  -11.8468 C.3     1  LIG1       -0.1600
     12 C          14.1439  -36.7478  -11.9425 C.3     1  LIG1       -0.0800
     13 C          13.7265  -36.9484  -13.4120 C.3     1  LIG1       -0.1600
     14 C          12.9413  -38.2529  -13.6046 C.3     1  LIG1       -0.1600
     15 C          13.7604  -39.4576  -13.1236 C.3     1  LIG1       -0.1600
     16 C          14.1762  -39.2769  -11.6583 C.3     1  LIG1       -0.1600
     17 C          14.9548  -37.9685  -11.4589 C.3     1  LIG1       -0.1600
     18 N          17.3080  -36.5060   -9.2411 N.am    1  LIG1       -0.7300
     19 O          17.7724  -35.8929  -11.3305 O.2     1  LIG1       -0.5700
     20 C          18.5808  -37.1970   -9.0385 C.3     1  LIG1        0.1400
     21 C          18.4412  -38.6329   -9.5776 C.3     1  LIG1        0.2000
     22 C          18.7334  -38.6501  -11.0935 C.3     1  LIG1        0.1960
     23 N          18.8342  -40.0835  -11.4303 N.3     1  LIG1       -0.8490
     24 C          17.5452  -40.7737  -11.1731 C.3     1  LIG1        0.1960
     25 C          17.1692  -40.5916   -9.6779 C.3     1  LIG1        0.1200
     26 O          17.1435  -39.1897   -9.3833 O.3     1  LIG1       -0.5600
     27 S          19.6393  -40.5287  -12.8014 S.O2    1  LIG1        1.4470
     28 C          18.4074  -40.5871  -14.1298 C.ar    1  LIG1       -0.0090
     29 O          20.5903  -39.5226  -13.1138 O.2     1  LIG1       -0.6500
     30 O          20.1503  -41.8397  -12.6043 O.2     1  LIG1       -0.6500
     31 C          18.0124  -39.4439  -14.8478 C.ar    1  LIG1        0.0730
     32 C          17.0616  -39.5658  -15.8678 C.ar    1  LIG1       -0.1500
     33 C          16.4980  -40.7966  -16.1720 C.ar    1  LIG1       -0.1500
     34 C          16.8768  -41.9249  -15.4592 C.ar    1  LIG1       -0.1500
     35 C          17.8239  -41.8194  -14.4469 C.ar    1  LIG1       -0.1500
     36 C          18.5289  -38.1283  -14.5608 C.1     1  LIG1        0.4840
     37 N          18.8933  -37.0641  -14.3526 N.1     1  LIG1       -0.5570
     38 H          17.0919  -28.6094  -11.9439 H       1  LIG1        0.1500
     39 H          16.6575  -28.7422   -9.3203 H       1  LIG1        0.1500
     40 H          16.1839  -31.2977   -8.7735 H       1  LIG1        0.1500
     41 H          15.1735  -33.3526   -9.5158 H       1  LIG1        0.3700
     42 H          14.9558  -35.6967   -9.6752 H       1  LIG1        0.0800
     43 H          15.7304  -35.4223  -12.6024 H       1  LIG1        0.0800
     44 H          14.2793  -34.5818  -12.0337 H       1  LIG1        0.0800
     45 H          13.2339  -36.6740  -11.3426 H       1  LIG1        0.0800
     46 H          14.6162  -36.9751  -14.0439 H       1  LIG1        0.0800
     47 H          13.1006  -36.1139  -13.7315 H       1  LIG1        0.0800
     48 H          12.6993  -38.3789  -14.6612 H       1  LIG1        0.0800
     49 H          12.0079  -38.2018  -13.0393 H       1  LIG1        0.0800
     50 H          14.6529  -39.5603  -13.7433 H       1  LIG1        0.0800
     51 H          13.1642  -40.3664  -13.2227 H       1  LIG1        0.0800
     52 H          14.7985  -40.1186  -11.3516 H       1  LIG1        0.0800
     53 H          13.2835  -39.2632  -11.0293 H       1  LIG1        0.0800
     54 H          15.8939  -38.0253  -12.0123 H       1  LIG1        0.0800
     55 H          15.1828  -37.8722  -10.3971 H       1  LIG1        0.0800
     56 H          16.8116  -36.1790   -8.4143 H       1  LIG1        0.3700
     57 H          18.8445  -37.1992   -7.9791 H       1  LIG1        0.0800
     58 H          19.3675  -36.6859   -9.5955 H       1  LIG1        0.0800
     59 H          19.1676  -39.2596   -9.0553 H       1  LIG1        0.0800
     60 H          19.6783  -38.1516  -11.2618 H       1  LIG1        0.0800
     61 H          17.9098  -38.1891  -11.6246 H       1  LIG1        0.0800
     62 H          17.6528  -41.8347  -11.3597 H       1  LIG1        0.0800
     63 H          16.7666  -40.3266  -11.7798 H       1  LIG1        0.0800
     64 H          17.9000  -41.1044   -9.0485 H       1  LIG1        0.0800
     65 H          16.1842  -41.0226   -9.4985 H       1  LIG1        0.0800
     66 H          16.7578  -38.7082  -16.4135 H       1  LIG1        0.1500
     67 H          15.7744  -40.8757  -16.9452 H       1  LIG1        0.1500
     68 H          16.4453  -42.8669  -15.6873 H       1  LIG1        0.1500
     69 H          18.1099  -42.6900  -13.9089 H       1  LIG1        0.1500
@<TRIPOS>BOND
     1     1     2   ar
     2     1     5   ar
     3     1    38    1
     4     2     3   ar
     5     2    39    1
     6     3     4   ar
     7     3    40    1
     8     4     5   ar
     9     4     6    1
    10     6     7   am
    11     6     8    2
    12     7     9    1
    13     7    41    1
    14     9    10    1
    15     9    11    1
    16     9    42    1
    17    10    18   am
    18    10    19    2
    19    11    12    1
    20    11    43    1
    21    11    44    1
    22    12    13    1
    23    12    17    1
    24    12    45    1
    25    13    14    1
    26    13    46    1
    27    13    47    1
    28    14    15    1
    29    14    48    1
    30    14    49    1
    31    15    16    1
    32    15    50    1
    33    15    51    1
    34    16    17    1
    35    16    52    1
    36    16    53    1
    37    17    54    1
    38    17    55    1
    39    18    20    1
    40    18    56    1
    41    20    21    1
    42    20    57    1
    43    20    58    1
    44    21    22    1
    45    21    26    1
    46    21    59    1
    47    22    23    1
    48    22    60    1
    49    22    61    1
    50    23    24    1
    51    23    27    1
    52    24    25    1
    53    24    62    1
    54    24    63    1
    55    25    26    1
    56    25    64    1
    57    25    65    1
    58    27    28    1
    59    27    29    2
    60    27    30    2
    61    28    31   ar
    62    28    35   ar
    63    31    32   ar
    64    31    36    1
    65    32    33   ar
    66    32    66    1
    67    33    34   ar
    68    33    67    1
    69    34    35   ar
    70    34    68    1
    71    35    69    1
    72    36    37    3
@<TRIPOS>SUBSTRUCTURE
     1 LIG1        1 TEMP              0 ****  ****    0 ROOT


##########                                Name:              G1.sdf
##########                        Cluster_Size:                   1
##########                          Grid_Score:          -40.869354
##########                     Grid_vdw_energy:          -43.914242
##########                      Grid_es_energy:            3.044886
##########           Internal_energy_repulsive:           42.552326

@<TRIPOS>MOLECULE
G1.sdf
 69 72 1 0 0
SMALL
USER_CHARGES
****

@<TRIPOS>ATOM
      1 C          17.5011  -42.7196  -19.0666 C.ar    1  LIG1       -0.0100
      2 C          18.4205  -42.9799  -18.1078 C.ar    1  LIG1       -0.1500
      3 C          18.2094  -42.0643  -17.0766 C.ar    1  LIG1       -0.1500
      4 C          17.1620  -41.2695  -17.4443 C.ar    1  LIG1        0.0550
      5 O          16.7269  -41.6835  -18.6816 O.2     1  LIG1       -0.2800
      6 C          16.5265  -40.1532  -16.7519 C.2     1  LIG1        0.7150
      7 N          15.4786  -39.5131  -17.3511 N.am    1  LIG1       -0.7300
      8 O          16.8477  -39.7544  -15.6325 O.2     1  LIG1       -0.5700
      9 C          14.7898  -38.3710  -16.6988 C.3     1  LIG1        0.2810
     10 C          15.8078  -37.2238  -16.5454 C.2     1  LIG1        0.5690
     11 C          14.3173  -38.8495  -15.3019 C.3     1  LIG1       -0.1600
     12 C          13.0950  -38.0332  -14.8185 C.3     1  LIG1       -0.0800
     13 C          11.9583  -38.2240  -15.8410 C.3     1  LIG1       -0.1600
     14 C          10.6921  -37.4608  -15.4292 C.3     1  LIG1       -0.1600
     15 C          10.2219  -37.8979  -14.0358 C.3     1  LIG1       -0.1600
     16 C          11.3404  -37.7054  -13.0040 C.3     1  LIG1       -0.1600
     17 C          12.6125  -38.4603  -13.4162 C.3     1  LIG1       -0.1600
     18 N          16.3625  -37.0869  -15.3349 N.am    1  LIG1       -0.7300
     19 O          16.0229  -36.3825  -17.4195 O.2     1  LIG1       -0.5700
     20 C          17.3456  -36.0505  -15.0220 C.3     1  LIG1        0.1400
     21 C          16.8222  -35.2351  -13.8248 C.3     1  LIG1        0.2000
     22 C          16.2441  -36.1898  -12.7581 C.3     1  LIG1        0.1960
     23 N          16.0318  -35.3319  -11.5760 N.3     1  LIG1       -0.8490
     24 C          15.0375  -34.2697  -11.8717 C.3     1  LIG1        0.1960
     25 C          15.5475  -33.4263  -13.0712 C.3     1  LIG1        0.1200
     26 O          15.7973  -34.3077  -14.1728 O.3     1  LIG1       -0.5600
     27 S          15.9272  -36.0346  -10.0856 S.O2    1  LIG1        1.4470
     28 C          17.2999  -37.2128   -9.9707 C.ar    1  LIG1       -0.0090
     29 O          16.1121  -35.0312   -9.0989 O.2     1  LIG1       -0.6500
     30 O          14.7066  -36.7594  -10.0266 O.2     1  LIG1       -0.6500
     31 C          17.1702  -38.5654  -10.3346 C.ar    1  LIG1        0.0730
     32 C          18.2764  -39.4162  -10.2281 C.ar    1  LIG1       -0.1500
     33 C          19.4945  -38.9448   -9.7597 C.ar    1  LIG1       -0.1500
     34 C          19.6239  -37.6141   -9.3895 C.ar    1  LIG1       -0.1500
     35 C          18.5348  -36.7564   -9.4950 C.ar    1  LIG1       -0.1500
     36 C          15.9257  -39.1312  -10.7939 C.1     1  LIG1        0.4840
     37 N          14.9549  -39.6275  -11.1400 N.1     1  LIG1       -0.5570
     38 H          17.3326  -43.1944  -20.0001 H       1  LIG1        0.1500
     39 H          19.1593  -43.7392  -18.1410 H       1  LIG1        0.1500
     40 H          18.7611  -41.9988  -16.1747 H       1  LIG1        0.1500
     41 H          14.9246  -40.0728  -18.0222 H       1  LIG1        0.3700
     42 H          13.9588  -38.0184  -17.2944 H       1  LIG1        0.0800
     43 H          15.1347  -38.7372  -14.5874 H       1  LIG1        0.0800
     44 H          14.0529  -39.9052  -15.3626 H       1  LIG1        0.0800
     45 H          13.3471  -36.9706  -14.7918 H       1  LIG1        0.0800
     46 H          11.7188  -39.2855  -15.9269 H       1  LIG1        0.0800
     47 H          12.2813  -37.8625  -16.8184 H       1  LIG1        0.0800
     48 H           9.8999  -37.6527  -16.1548 H       1  LIG1        0.0800
     49 H          10.9011  -36.3886  -15.4202 H       1  LIG1        0.0800
     50 H           9.9322  -38.9497  -14.0640 H       1  LIG1        0.0800
     51 H           9.3520  -37.3073  -13.7431 H       1  LIG1        0.0800
     52 H          11.0033  -38.0681  -12.0321 H       1  LIG1        0.0800
     53 H          11.5676  -36.6411  -12.9130 H       1  LIG1        0.0800
     54 H          12.4076  -39.5323  -13.4114 H       1  LIG1        0.0800
     55 H          13.3825  -38.2506  -12.6733 H       1  LIG1        0.0800
     56 H          15.8667  -37.5177  -14.5565 H       1  LIG1        0.3700
     57 H          17.5091  -35.4108  -15.8914 H       1  LIG1        0.0800
     58 H          18.2926  -36.5160  -14.7448 H       1  LIG1        0.0800
     59 H          17.6631  -34.6787  -13.4044 H       1  LIG1        0.0800
     60 H          16.9833  -36.9510  -12.5488 H       1  LIG1        0.0800
     61 H          15.3040  -36.5964  -13.1097 H       1  LIG1        0.0800
     62 H          14.9420  -33.6084  -11.0199 H       1  LIG1        0.0800
     63 H          14.0930  -34.7234  -12.1479 H       1  LIG1        0.0800
     64 H          16.4591  -32.8954  -12.7880 H       1  LIG1        0.0800
     65 H          14.7861  -32.6976  -13.3494 H       1  LIG1        0.0800
     66 H          18.1866  -40.4378  -10.4999 H       1  LIG1        0.1500
     67 H          20.3255  -39.6011   -9.6793 H       1  LIG1        0.1500
     68 H          20.5531  -37.2513   -9.0280 H       1  LIG1        0.1500
     69 H          18.6450  -35.7381   -9.2121 H       1  LIG1        0.1500
@<TRIPOS>BOND
     1     1     2   ar
     2     1     5   ar
     3     1    38    1
     4     2     3   ar
     5     2    39    1
     6     3     4   ar
     7     3    40    1
     8     4     5   ar
     9     4     6    1
    10     6     7   am
    11     6     8    2
    12     7     9    1
    13     7    41    1
    14     9    10    1
    15     9    11    1
    16     9    42    1
    17    10    18   am
    18    10    19    2
    19    11    12    1
    20    11    43    1
    21    11    44    1
    22    12    13    1
    23    12    17    1
    24    12    45    1
    25    13    14    1
    26    13    46    1
    27    13    47    1
    28    14    15    1
    29    14    48    1
    30    14    49    1
    31    15    16    1
    32    15    50    1
    33    15    51    1
    34    16    17    1
    35    16    52    1
    36    16    53    1
    37    17    54    1
    38    17    55    1
    39    18    20    1
    40    18    56    1
    41    20    21    1
    42    20    57    1
    43    20    58    1
    44    21    22    1
    45    21    26    1
    46    21    59    1
    47    22    23    1
    48    22    60    1
    49    22    61    1
    50    23    24    1
    51    23    27    1
    52    24    25    1
    53    24    62    1
    54    24    63    1
    55    25    26    1
    56    25    64    1
    57    25    65    1
    58    27    28    1
    59    27    29    2
    60    27    30    2
    61    28    31   ar
    62    28    35   ar
    63    31    32   ar
    64    31    36    1
    65    32    33   ar
    66    32    66    1
    67    33    34   ar
    68    33    67    1
    69    34    35   ar
    70    34    68    1
    71    35    69    1
    72    36    37    3
@<TRIPOS>SUBSTRUCTURE
     1 LIG1        1 TEMP              0 ****  ****    0 ROOT


##########                                Name:      Z14487066.****
##########                        Cluster_Size:                   4
##########                          Grid_Score:          -45.758148
##########                     Grid_vdw_energy:          -39.682343
##########                      Grid_es_energy:           -6.075808
##########           Internal_energy_repulsive:            5.557537

@<TRIPOS>MOLECULE
Z14487066.****
 44 46 1 0 0
SMALL
USER_CHARGES
****

@<TRIPOS>ATOM
      1 C          16.8613  -34.9868   -9.6977 C.ar    1  LIG1       -0.1360
      2 C          16.5659  -33.7221  -10.3041 C.ar    1  LIG1        0.3750
      3 N          16.8129  -33.4984  -11.5519 N.ar    1  LIG1       -0.5760
      4 C          17.3783  -34.5186  -12.3061 C.ar    1  LIG1        0.3120
      5 N          17.6774  -35.7346  -11.7625 N.ar    1  LIG1        0.6010
      6 C          17.4213  -36.0086  -10.4188 C.ar    1  LIG1       -0.1690
      7 C          15.9506  -32.6179   -9.4789 C.3     1  LIG1       -0.1790
      8 C          17.7812  -37.3898   -9.8975 C.3     1  LIG1       -0.1020
      9 N          17.7121  -34.5315  -13.5594 N.ar    1  LIG1       -0.5650
     10 C          18.2096  -35.7698  -13.7302 C.ar    1  LIG1        0.5710
     11 N          18.2199  -36.5449  -12.6793 N.ar    1  LIG1       -0.7070
     12 S          18.8257  -36.3098  -15.2709 S.3     1  LIG1       -0.2850
     13 C          17.4409  -35.8628  -16.3881 C.3     1  LIG1        0.1310
     14 C          16.5251  -37.0651  -16.4046 C.2     1  LIG1        0.5690
     15 N          15.6048  -37.1395  -15.3912 N.am    1  LIG1       -0.4900
     16 O          16.5675  -37.8934  -17.2847 O.2     1  LIG1       -0.5700
     17 C          14.6855  -38.1279  -15.2092 C.2     1  LIG1        0.6900
     18 N          13.9160  -37.9203  -14.1166 N.am    1  LIG1       -0.7300
     19 O          14.5835  -39.1183  -15.9129 O.2     1  LIG1       -0.5700
     20 C          12.8711  -38.8614  -13.7442 C.3     1  LIG1        0.2200
     21 C          12.5006  -38.5989  -12.2864 C.3     1  LIG1       -0.1600
     22 C          11.5756  -37.3730  -12.2924 C.3     1  LIG1       -0.1600
     23 C          11.0218  -37.2670  -13.7196 C.3     1  LIG1       -0.1600
     24 C          11.5919  -38.4710  -14.4797 C.3     1  LIG1       -0.1600
     25 H          16.6364  -35.1146   -8.6704 H       1  LIG1        0.1500
     26 H          15.0082  -32.9883   -9.1041 H       1  LIG1        0.0800
     27 H          16.6419  -32.3982   -8.6784 H       1  LIG1        0.0800
     28 H          15.8077  -31.7584  -10.1202 H       1  LIG1        0.0800
     29 H          17.2218  -38.1135  -10.4773 H       1  LIG1        0.0800
     30 H          18.8457  -37.5234  -10.0347 H       1  LIG1        0.0800
     31 H          17.5135  -37.4381   -8.8508 H       1  LIG1        0.0800
     32 H          17.8476  -35.7126  -17.3783 H       1  LIG1        0.0800
     33 H          16.9293  -35.0073  -15.9713 H       1  LIG1        0.0800
     34 H          15.5970  -36.3805  -14.7090 H       1  LIG1        0.3700
     35 H          13.8160  -36.9672  -13.7573 H       1  LIG1        0.3700
     36 H          13.1372  -39.9087  -13.9134 H       1  LIG1        0.0800
     37 H          13.3851  -38.4391  -11.6672 H       1  LIG1        0.0800
     38 H          11.9482  -39.4606  -11.9096 H       1  LIG1        0.0800
     39 H          12.1430  -36.4729  -12.0491 H       1  LIG1        0.0800
     40 H          10.7684  -37.5031  -11.5695 H       1  LIG1        0.0800
     41 H          11.3692  -36.3413  -14.1816 H       1  LIG1        0.0800
     42 H           9.9303  -37.2902  -13.7238 H       1  LIG1        0.0800
     43 H          10.8878  -39.3028  -14.4183 H       1  LIG1        0.0800
     44 H          11.7841  -38.2379  -15.5291 H       1  LIG1        0.0800
@<TRIPOS>BOND
     1     1     2   ar
     2     1     6   ar
     3     1    25    1
     4     2     3   ar
     5     2     7    1
     6     3     4   ar
     7     4     5   ar
     8     4     9   ar
     9     5     6   ar
    10     5    11   ar
    11     6     8    1
    12     7    26    1
    13     7    27    1
    14     7    28    1
    15     8    29    1
    16     8    30    1
    17     8    31    1
    18     9    10   ar
    19    10    11   ar
    20    10    12    1
    21    12    13    1
    22    13    14    1
    23    13    32    1
    24    13    33    1
    25    14    15   am
    26    14    16    2
    27    15    17   am
    28    15    34    1
    29    17    18   am
    30    17    19    2
    31    18    20    1
    32    18    35    1
    33    20    21    1
    34    20    24    1
    35    20    36    1
    36    21    22    1
    37    21    37    1
    38    21    38    1
    39    22    23    1
    40    22    39    1
    41    22    40    1
    42    23    24    1
    43    23    41    1
    44    23    42    1
    45    24    43    1
    46    24    44    1
@<TRIPOS>SUBSTRUCTURE
     1 LIG1        1 TEMP              0 ****  ****    0 ROOT


##########                                Name:      Z14487066.****
##########                        Cluster_Size:                   3
##########                          Grid_Score:          -45.077324
##########                     Grid_vdw_energy:          -39.643570
##########                      Grid_es_energy:           -5.433754
##########           Internal_energy_repulsive:            9.170976

@<TRIPOS>MOLECULE
Z14487066.****
 44 46 1 0 0
SMALL
USER_CHARGES
****

@<TRIPOS>ATOM
      1 C          14.2202  -41.2966  -11.8732 C.ar    1  LIG1       -0.1360
      2 C          13.9042  -39.9078  -11.7123 C.ar    1  LIG1        0.3750
      3 N          14.7249  -39.0914  -11.1394 N.ar    1  LIG1       -0.5760
      4 C          15.9354  -39.5899  -10.6751 C.ar    1  LIG1        0.3120
      5 N          16.2694  -40.9069  -10.8066 N.ar    1  LIG1        0.6010
      6 C          15.4061  -41.8138  -11.4219 C.ar    1  LIG1       -0.1690
      7 C          12.5873  -39.3725  -12.2200 C.3     1  LIG1       -0.1790
      8 C          15.8596  -43.2601  -11.5301 C.3     1  LIG1       -0.1020
      9 N          16.9066  -38.9739  -10.0754 N.ar    1  LIG1       -0.5650
     10 C          17.8034  -39.9537   -9.8609 C.ar    1  LIG1        0.5710
     11 N          17.4747  -41.1471  -10.2766 N.ar    1  LIG1       -0.7070
     12 S          19.3209  -39.6519   -9.0540 S.3     1  LIG1       -0.2850
     13 C          19.1760  -37.8631   -8.6737 C.3     1  LIG1        0.1310
     14 C          19.1199  -37.1642  -10.0127 C.2     1  LIG1        0.5690
     15 N          18.2426  -36.1155  -10.1124 N.am    1  LIG1       -0.4900
     16 O          19.8386  -37.4794  -10.9329 O.2     1  LIG1       -0.5700
     17 C          18.0281  -35.3472  -11.2164 C.2     1  LIG1        0.6900
     18 N          17.0990  -34.3878  -11.0032 N.am    1  LIG1       -0.7300
     19 O          18.5674  -35.5188  -12.2962 O.2     1  LIG1       -0.5700
     20 C          16.7232  -33.4589  -12.0577 C.3     1  LIG1        0.2200
     21 C          15.5342  -34.0554  -12.8072 C.3     1  LIG1       -0.1600
     22 C          14.2969  -33.7768  -11.9411 C.3     1  LIG1       -0.1600
     23 C          14.6833  -32.6200  -11.0098 C.3     1  LIG1       -0.1600
     24 C          16.1098  -32.2213  -11.4082 C.3     1  LIG1       -0.1600
     25 H          13.5097  -41.9199  -12.3517 H       1  LIG1        0.1500
     26 H          12.5580  -39.5564  -13.2835 H       1  LIG1        0.0800
     27 H          11.8064  -39.9070  -11.6992 H       1  LIG1        0.0800
     28 H          12.5487  -38.3132  -12.0034 H       1  LIG1        0.0800
     29 H          16.7823  -43.2714  -12.0970 H       1  LIG1        0.0800
     30 H          16.0177  -43.6287  -10.5257 H       1  LIG1        0.0800
     31 H          15.0853  -43.8218  -12.0346 H       1  LIG1        0.0800
     32 H          20.0732  -37.5602   -8.1523 H       1  LIG1        0.0800
     33 H          18.2568  -37.7039   -8.1287 H       1  LIG1        0.0800
     34 H          17.7012  -35.8771   -9.2807 H       1  LIG1        0.3700
     35 H          16.9174  -34.0812  -10.0437 H       1  LIG1        0.3700
     36 H          17.5428  -33.2020  -12.7348 H       1  LIG1        0.0800
     37 H          15.6687  -35.1222  -12.9945 H       1  LIG1        0.0800
     38 H          15.4282  -33.5333  -13.7589 H       1  LIG1        0.0800
     39 H          14.0461  -34.6588  -11.3491 H       1  LIG1        0.0800
     40 H          13.4472  -33.5044  -12.5696 H       1  LIG1        0.0800
     41 H          14.6720  -32.9620   -9.9735 H       1  LIG1        0.0800
     42 H          14.0012  -31.7752  -11.1232 H       1  LIG1        0.0800
     43 H          16.0670  -31.4233  -12.1517 H       1  LIG1        0.0800
     44 H          16.6944  -31.8834  -10.5498 H       1  LIG1        0.0800
@<TRIPOS>BOND
     1     1     2   ar
     2     1     6   ar
     3     1    25    1
     4     2     3   ar
     5     2     7    1
     6     3     4   ar
     7     4     5   ar
     8     4     9   ar
     9     5     6   ar
    10     5    11   ar
    11     6     8    1
    12     7    26    1
    13     7    27    1
    14     7    28    1
    15     8    29    1
    16     8    30    1
    17     8    31    1
    18     9    10   ar
    19    10    11   ar
    20    10    12    1
    21    12    13    1
    22    13    14    1
    23    13    32    1
    24    13    33    1
    25    14    15   am
    26    14    16    2
    27    15    17   am
    28    15    34    1
    29    17    18   am
    30    17    19    2
    31    18    20    1
    32    18    35    1
    33    20    21    1
    34    20    24    1
    35    20    36    1
    36    21    22    1
    37    21    37    1
    38    21    38    1
    39    22    23    1
    40    22    39    1
    41    22    40    1
    42    23    24    1
    43    23    41    1
    44    23    42    1
    45    24    43    1
    46    24    44    1
@<TRIPOS>SUBSTRUCTURE
     1 LIG1        1 TEMP              0 ****  ****    0 ROOT


##########                                Name:      Z14487066.****
##########                        Cluster_Size:                   3
##########                          Grid_Score:          -45.044708
##########                     Grid_vdw_energy:          -37.680000
##########                      Grid_es_energy:           -7.364710
##########           Internal_energy_repulsive:            5.503664

@<TRIPOS>MOLECULE
Z14487066.****
 44 46 1 0 0
SMALL
USER_CHARGES
****

@<TRIPOS>ATOM
      1 C          16.6852  -34.8486   -9.7417 C.ar    1  LIG1       -0.1360
      2 C          17.7477  -35.7856   -9.5232 C.ar    1  LIG1        0.3750
      3 N          18.4397  -36.2613  -10.5045 N.ar    1  LIG1       -0.5760
      4 C          18.1317  -35.8437  -11.7929 C.ar    1  LIG1        0.3120
      5 N          17.1245  -34.9562  -12.0404 N.ar    1  LIG1        0.6010
      6 C          16.3598  -34.4226  -11.0028 C.ar    1  LIG1       -0.1690
      7 C          18.0776  -36.2345   -8.1203 C.3     1  LIG1       -0.1790
      8 C          15.2616  -33.4378  -11.3676 C.3     1  LIG1       -0.1020
      9 N          18.6775  -36.1766  -12.9215 N.ar    1  LIG1       -0.5650
     10 C          17.9700  -35.4711  -13.8226 C.ar    1  LIG1        0.5710
     11 N          17.0135  -34.7166  -13.3525 N.ar    1  LIG1       -0.7070
     12 S          18.2998  -35.5702  -15.5333 S.3     1  LIG1       -0.2850
     13 C          16.6123  -35.8126  -16.2109 C.3     1  LIG1        0.1310
     14 C          16.4405  -37.3074  -16.3538 C.2     1  LIG1        0.5690
     15 N          16.0703  -37.9856  -15.2214 N.am    1  LIG1       -0.4900
     16 O          16.5764  -37.8715  -17.4149 O.2     1  LIG1       -0.5700
     17 C          15.8597  -39.3274  -15.1189 C.2     1  LIG1        0.6900
     18 N          15.5031  -39.6984  -13.8682 N.am    1  LIG1       -0.7300
     19 O          16.0154  -40.1252  -16.0276 O.2     1  LIG1       -0.5700
     20 C          15.2321  -41.0909  -13.5466 C.3     1  LIG1        0.2200
     21 C          16.5124  -41.6998  -12.9798 C.3     1  LIG1       -0.1600
     22 C          16.5945  -41.2416  -11.5162 C.3     1  LIG1       -0.1600
     23 C          15.1692  -40.8347  -11.1190 C.3     1  LIG1       -0.1600
     24 C          14.2937  -41.1297  -12.3434 C.3     1  LIG1       -0.1600
     25 H          16.1517  -34.4907   -8.8994 H       1  LIG1        0.1500
     26 H          18.3475  -35.3524   -7.5593 H       1  LIG1        0.0800
     27 H          17.1915  -36.7071   -7.7224 H       1  LIG1        0.0800
     28 H          18.9026  -36.9323   -8.1756 H       1  LIG1        0.0800
     29 H          15.7277  -32.6024  -11.8752 H       1  LIG1        0.0800
     30 H          14.5679  -33.9495  -12.0208 H       1  LIG1        0.0800
     31 H          14.7757  -33.1180  -10.4559 H       1  LIG1        0.0800
     32 H          16.5784  -35.3560  -17.1901 H       1  LIG1        0.0800
     33 H          15.8999  -35.4193  -15.5001 H       1  LIG1        0.0800
     34 H          15.9292  -37.4374  -14.3722 H       1  LIG1        0.3700
     35 H          15.0859  -39.0006  -13.2465 H       1  LIG1        0.3700
     36 H          14.8435  -41.6725  -14.3875 H       1  LIG1        0.0800
     37 H          17.3914  -41.3969  -13.5515 H       1  LIG1        0.0800
     38 H          16.4209  -42.7862  -13.0087 H       1  LIG1        0.0800
     39 H          17.2615  -40.3822  -11.4282 H       1  LIG1        0.0800
     40 H          16.9587  -42.0536  -10.8842 H       1  LIG1        0.0800
     41 H          15.1403  -39.7672  -10.8938 H       1  LIG1        0.0800
     42 H          14.8226  -41.4005  -10.2521 H       1  LIG1        0.0800
     43 H          13.8801  -42.1362  -12.2571 H       1  LIG1        0.0800
     44 H          13.4771  -40.4116  -12.4442 H       1  LIG1        0.0800
@<TRIPOS>BOND
     1     1     2   ar
     2     1     6   ar
     3     1    25    1
     4     2     3   ar
     5     2     7    1
     6     3     4   ar
     7     4     5   ar
     8     4     9   ar
     9     5     6   ar
    10     5    11   ar
    11     6     8    1
    12     7    26    1
    13     7    27    1
    14     7    28    1
    15     8    29    1
    16     8    30    1
    17     8    31    1
    18     9    10   ar
    19    10    11   ar
    20    10    12    1
    21    12    13    1
    22    13    14    1
    23    13    32    1
    24    13    33    1
    25    14    15   am
    26    14    16    2
    27    15    17   am
    28    15    34    1
    29    17    18   am
    30    17    19    2
    31    18    20    1
    32    18    35    1
    33    20    21    1
    34    20    24    1
    35    20    36    1
    36    21    22    1
    37    21    37    1
    38    21    38    1
    39    22    23    1
    40    22    39    1
    41    22    40    1
    42    23    24    1
    43    23    41    1
    44    23    42    1
    45    24    43    1
    46    24    44    1
@<TRIPOS>SUBSTRUCTURE
     1 LIG1        1 TEMP              0 ****  ****    0 ROOT


##########                                Name:    Z1544592819.****
##########                        Cluster_Size:                   1
##########                          Grid_Score:          -41.784664
##########                     Grid_vdw_energy:          -32.394512
##########                      Grid_es_energy:           -9.390152
##########           Internal_energy_repulsive:            8.184958

@<TRIPOS>MOLECULE
Z1544592819.****
 45 47 1 0 0
SMALL
USER_CHARGES
****

@<TRIPOS>ATOM
      1 C          16.9618  -40.2399  -12.2917 C.ar    1  LIG1       -0.1500
      2 C          18.2501  -40.7262  -12.0779 C.ar    1  LIG1       -0.1500
      3 C          19.0224  -40.1754  -11.0507 C.ar    1  LIG1       -0.0230
      4 C          18.5386  -39.1556  -10.2344 C.ar    1  LIG1       -0.1500
      5 C          17.2508  -38.6848  -10.4736 C.ar    1  LIG1        0.1170
      6 C          16.4577  -39.2183  -11.4902 C.ar    1  LIG1       -0.1500
      7 N          20.3475  -40.6701  -10.8349 N.ar    1  LIG1        0.3260
      8 C          21.4993  -40.0663  -11.1834 C.ar    1  LIG1        0.2420
      9 N          22.5076  -40.8093  -10.8330 N.ar    1  LIG1       -0.3380
     10 N          21.9818  -41.9383  -10.2319 N.ar    1  LIG1       -0.3380
     11 C          20.6976  -41.8323  -10.2435 C.ar    1  LIG1        0.0060
     12 S          21.5471  -38.5174  -11.9830 S.3     1  LIG1       -0.2360
     13 C          19.6926  -42.8215   -9.6938 C.3     1  LIG1       -0.0600
     14 N          16.7410  -37.6514   -9.6736 N.am    1  LIG1       -0.5470
     15 C          16.7466  -36.3295   -9.9966 C.2     1  LIG1        0.5690
     16 O          17.2353  -36.0611  -11.0730 O.2     1  LIG1       -0.5700
     17 C          16.1722  -35.2683   -9.0712 C.3     1  LIG1        0.0440
     18 C          15.7418  -34.0655   -9.9144 C.ar    1  LIG1       -0.1430
     19 C          14.7486  -34.1592  -10.9012 C.ar    1  LIG1       -0.1430
     20 C          14.3931  -33.0218  -11.6244 C.ar    1  LIG1       -0.1500
     21 C          15.0170  -31.8036  -11.3856 C.ar    1  LIG1       -0.1500
     22 C          16.0121  -31.7060  -10.4211 C.ar    1  LIG1       -0.1430
     23 C          16.3748  -32.8384   -9.6986 C.ar    1  LIG1       -0.1500
     24 C          14.0387  -35.4640  -11.2162 C.3     1  LIG1       -0.0970
     25 C          16.7106  -30.3874  -10.1699 C.3     1  LIG1       -0.0970
     26 H          16.3640  -40.6416  -13.0709 H       1  LIG1        0.1500
     27 H          18.6390  -41.4996  -12.6921 H       1  LIG1        0.1500
     28 H          19.1297  -38.7419   -9.4584 H       1  LIG1        0.1500
     29 H          15.4830  -38.8335  -11.6603 H       1  LIG1        0.1500
     30 H          20.6163  -37.9281  -11.1519 H       1  LIG1        0.1800
     31 H          20.2420  -43.6330   -9.2169 H       1  LIG1        0.0800
     32 H          19.0634  -42.3087   -8.9663 H       1  LIG1        0.0800
     33 H          19.0938  -43.2032  -10.5211 H       1  LIG1        0.0800
     34 H          16.2763  -37.8754   -8.7841 H       1  LIG1        0.3700
     35 H          16.9401  -35.0032   -8.3636 H       1  LIG1        0.0800
     36 H          15.2940  -35.6770   -8.5932 H       1  LIG1        0.0800
     37 H          13.6407  -33.0782  -12.3681 H       1  LIG1        0.1500
     38 H          14.7355  -30.9503  -11.9469 H       1  LIG1        0.1500
     39 H          17.1459  -32.7616   -8.9736 H       1  LIG1        0.1500
     40 H          13.3782  -35.3254  -12.0722 H       1  LIG1        0.0800
     41 H          14.7890  -36.2179  -11.4554 H       1  LIG1        0.0800
     42 H          13.4533  -35.7557  -10.3458 H       1  LIG1        0.0800
     43 H          17.0009  -30.3370   -9.1206 H       1  LIG1        0.0800
     44 H          17.5904  -30.3459  -10.8128 H       1  LIG1        0.0800
     45 H          16.0248  -29.5733  -10.4065 H       1  LIG1        0.0800
@<TRIPOS>BOND
     1     1     2   ar
     2     1     6   ar
     3     1    26    1
     4     2     3   ar
     5     2    27    1
     6     3     4   ar
     7     3     7    1
     8     4     5   ar
     9     4    28    1
    10     5     6   ar
    11     5    14    1
    12     6    29    1
    13     7     8   ar
    14     7    11   ar
    15     8     9   ar
    16     8    12    1
    17     9    10   ar
    18    10    11   ar
    19    11    13    1
    20    12    30    1
    21    13    31    1
    22    13    32    1
    23    13    33    1
    24    14    15   am
    25    14    34    1
    26    15    16    2
    27    15    17    1
    28    17    18    1
    29    17    35    1
    30    17    36    1
    31    18    19   ar
    32    18    23   ar
    33    19    20   ar
    34    19    24    1
    35    20    21   ar
    36    20    37    1
    37    21    22   ar
    38    21    38    1
    39    22    23   ar
    40    22    25    1
    41    23    39    1
    42    24    40    1
    43    24    41    1
    44    24    42    1
    45    25    43    1
    46    25    44    1
    47    25    45    1
@<TRIPOS>SUBSTRUCTURE
     1 LIG1        1 TEMP              0 ****  ****    0 ROOT


##########                                Name:    Z1544592819.****
##########                        Cluster_Size:                   6
##########                          Grid_Score:          -40.925034
##########                     Grid_vdw_energy:          -34.005470
##########                      Grid_es_energy:           -6.919562
##########           Internal_energy_repulsive:            5.577036

@<TRIPOS>MOLECULE
Z1544592819.****
 45 47 1 0 0
SMALL
USER_CHARGES
****

@<TRIPOS>ATOM
      1 C          19.2246  -40.4259   -9.9183 C.ar    1  LIG1       -0.1500
      2 C          18.6704  -41.2650  -10.8830 C.ar    1  LIG1       -0.1500
      3 C          17.3643  -41.0268  -11.3212 C.ar    1  LIG1       -0.0230
      4 C          16.6030  -39.9727  -10.8216 C.ar    1  LIG1       -0.1500
      5 C          17.1789  -39.1537   -9.8548 C.ar    1  LIG1        0.1170
      6 C          18.4812  -39.3674   -9.4015 C.ar    1  LIG1       -0.1500
      7 N          16.7927  -41.8920  -12.3072 N.ar    1  LIG1        0.3260
      8 C          15.8836  -42.8626  -12.0972 C.ar    1  LIG1        0.2420
      9 N          15.5968  -43.4461  -13.2235 N.ar    1  LIG1       -0.3380
     10 N          16.3523  -42.8229  -14.1999 N.ar    1  LIG1       -0.3380
     11 C          17.0533  -41.9028  -13.6319 C.ar    1  LIG1        0.0060
     12 S          15.2358  -43.2217  -10.5185 S.3     1  LIG1       -0.2360
     13 C          18.0281  -40.9541  -14.2955 C.3     1  LIG1       -0.0600
     14 N          16.4320  -38.0904   -9.3262 N.am    1  LIG1       -0.5470
     15 C          16.3557  -36.8404   -9.8588 C.2     1  LIG1        0.5690
     16 O          16.9941  -36.6703  -10.8752 O.2     1  LIG1       -0.5700
     17 C          15.5209  -35.7398   -9.2229 C.3     1  LIG1        0.0440
     18 C          15.3240  -34.6211  -10.2488 C.ar    1  LIG1       -0.1430
     19 C          14.4879  -34.7677  -11.3660 C.ar    1  LIG1       -0.1430
     20 C          14.3412  -33.7042  -12.2551 C.ar    1  LIG1       -0.1500
     21 C          15.0196  -32.5089  -12.0521 C.ar    1  LIG1       -0.1500
     22 C          15.8614  -32.3612  -10.9568 C.ar    1  LIG1       -0.1430
     23 C          16.0157  -33.4203  -10.0677 C.ar    1  LIG1       -0.1500
     24 C          13.7291  -36.0522  -11.6483 C.3     1  LIG1       -0.0970
     25 C          16.6197  -31.0697  -10.7404 C.3     1  LIG1       -0.0970
     26 H          20.2121  -40.5958   -9.5692 H       1  LIG1        0.1500
     27 H          19.2324  -42.0767  -11.2729 H       1  LIG1        0.1500
     28 H          15.6132  -39.7986  -11.1574 H       1  LIG1        0.1500
     29 H          18.8935  -38.7358   -8.6545 H       1  LIG1        0.1500
     30 H          15.1075  -41.9003  -10.1417 H       1  LIG1        0.1800
     31 H          17.9982  -41.1343  -15.3700 H       1  LIG1        0.0800
     32 H          17.7234  -39.9315  -14.0724 H       1  LIG1        0.0800
     33 H          19.0263  -41.1534  -13.9048 H       1  LIG1        0.0800
     34 H          15.8452  -38.2411   -8.4955 H       1  LIG1        0.3700
     35 H          16.0506  -35.3916   -8.3518 H       1  LIG1        0.0800
     36 H          14.5514  -36.1495   -8.9799 H       1  LIG1        0.0800
     37 H          13.7083  -33.8003  -13.0994 H       1  LIG1        0.1500
     38 H          14.8978  -31.7123  -12.7399 H       1  LIG1        0.1500
     39 H          16.6714  -33.3074   -9.2411 H       1  LIG1        0.1500
     40 H          13.2200  -35.9746  -12.6090 H       1  LIG1        0.0800
     41 H          14.4424  -36.8760  -11.6816 H       1  LIG1        0.0800
     42 H          12.9963  -36.1998  -10.8567 H       1  LIG1        0.0800
     43 H          16.7505  -30.9133   -9.6698 H       1  LIG1        0.0800
     44 H          17.5874  -31.1620  -11.2346 H       1  LIG1        0.0800
     45 H          16.0472  -30.2472  -11.1701 H       1  LIG1        0.0800
@<TRIPOS>BOND
     1     1     2   ar
     2     1     6   ar
     3     1    26    1
     4     2     3   ar
     5     2    27    1
     6     3     4   ar
     7     3     7    1
     8     4     5   ar
     9     4    28    1
    10     5     6   ar
    11     5    14    1
    12     6    29    1
    13     7     8   ar
    14     7    11   ar
    15     8     9   ar
    16     8    12    1
    17     9    10   ar
    18    10    11   ar
    19    11    13    1
    20    12    30    1
    21    13    31    1
    22    13    32    1
    23    13    33    1
    24    14    15   am
    25    14    34    1
    26    15    16    2
    27    15    17    1
    28    17    18    1
    29    17    35    1
    30    17    36    1
    31    18    19   ar
    32    18    23   ar
    33    19    20   ar
    34    19    24    1
    35    20    21   ar
    36    20    37    1
    37    21    22   ar
    38    21    38    1
    39    22    23   ar
    40    22    25    1
    41    23    39    1
    42    24    40    1
    43    24    41    1
    44    24    42    1
    45    25    43    1
    46    25    44    1
    47    25    45    1
@<TRIPOS>SUBSTRUCTURE
     1 LIG1        1 TEMP              0 ****  ****    0 ROOT


##########                                Name:    Z1544592819.****
##########                        Cluster_Size:                   1
##########                          Grid_Score:          -35.564987
##########                     Grid_vdw_energy:          -30.107054
##########                      Grid_es_energy:           -5.457933
##########           Internal_energy_repulsive:            8.097610

@<TRIPOS>MOLECULE
Z1544592819.****
 45 47 1 0 0
SMALL
USER_CHARGES
****

@<TRIPOS>ATOM
      1 C          14.4947  -36.7256  -11.5195 C.ar    1  LIG1       -0.1500
      2 C          14.8203  -36.6066  -12.8692 C.ar    1  LIG1       -0.1500
      3 C          16.0592  -37.0786  -13.3134 C.ar    1  LIG1       -0.0230
      4 C          16.9755  -37.6661  -12.4442 C.ar    1  LIG1       -0.1500
      5 C          16.6271  -37.7670  -11.1005 C.ar    1  LIG1        0.1170
      6 C          15.3964  -37.3065  -10.6309 C.ar    1  LIG1       -0.1500
      7 N          16.3964  -36.9510  -14.6980 N.ar    1  LIG1        0.3260
      8 C          17.2406  -36.0542  -15.2420 C.ar    1  LIG1        0.2420
      9 N          17.3000  -36.2323  -16.5289 N.ar    1  LIG1       -0.3380
     10 N          16.4596  -37.2899  -16.8250 N.ar    1  LIG1       -0.3380
     11 C          15.9355  -37.7009  -15.7218 C.ar    1  LIG1        0.0060
     12 S          18.0900  -34.8632  -14.2930 S.3     1  LIG1       -0.2360
     13 C          14.9551  -38.8399  -15.5430 C.3     1  LIG1       -0.0600
     14 N          17.5344  -38.3451  -10.2003 N.am    1  LIG1       -0.5470
     15 C          18.2149  -39.5059  -10.4045 C.2     1  LIG1        0.5690
     16 O          17.9978  -40.0544  -11.4635 O.2     1  LIG1       -0.5700
     17 C          19.1837  -40.0671   -9.3755 C.3     1  LIG1        0.0440
     18 C          20.3298  -40.7644  -10.1127 C.ar    1  LIG1       -0.1430
     19 C          20.5228  -42.1530  -10.0550 C.ar    1  LIG1       -0.1430
     20 C          21.5782  -42.7271  -10.7618 C.ar    1  LIG1       -0.1500
     21 C          22.4433  -41.9399  -11.5116 C.ar    1  LIG1       -0.1500
     22 C          22.2684  -40.5627  -11.5613 C.ar    1  LIG1       -0.1430
     23 C          21.2194  -39.9826  -10.8547 C.ar    1  LIG1       -0.1500
     24 C          19.6186  -43.0647   -9.2445 C.3     1  LIG1       -0.0970
     25 C          23.2188  -39.6966  -12.3590 C.3     1  LIG1       -0.0970
     26 H          13.5616  -36.3668  -11.1637 H       1  LIG1        0.1500
     27 H          14.1377  -36.1576  -13.5469 H       1  LIG1        0.1500
     28 H          17.9132  -38.0208  -12.7874 H       1  LIG1        0.1500
     29 H          15.1592  -37.3840   -9.5991 H       1  LIG1        0.1500
     30 H          17.0308  -34.6129  -13.4445 H       1  LIG1        0.1800
     31 H          14.8041  -39.3126  -16.5134 H       1  LIG1        0.0800
     32 H          15.3768  -39.5524  -14.8340 H       1  LIG1        0.0800
     33 H          14.0154  -38.4330  -15.1687 H       1  LIG1        0.0800
     34 H          17.7651  -37.8591   -9.3241 H       1  LIG1        0.3700
     35 H          18.6354  -40.7543   -8.7529 H       1  LIG1        0.0800
     36 H          19.5962  -39.2412   -8.8147 H       1  LIG1        0.0800
     37 H          21.7312  -43.7750  -10.7310 H       1  LIG1        0.1500
     38 H          23.2416  -42.3936  -12.0402 H       1  LIG1        0.1500
     39 H          21.0993  -38.9287  -10.8841 H       1  LIG1        0.1500
     40 H          20.0062  -44.0831   -9.2694 H       1  LIG1        0.0800
     41 H          19.6010  -42.7085   -8.2142 H       1  LIG1        0.0800
     42 H          18.6230  -43.0411   -9.6846 H       1  LIG1        0.0800
     43 H          22.6743  -38.8313  -12.7365 H       1  LIG1        0.0800
     44 H          24.0240  -39.3819  -11.6943 H       1  LIG1        0.0800
     45 H          23.6150  -40.2798  -13.1908 H       1  LIG1        0.0800
@<TRIPOS>BOND
     1     1     2   ar
     2     1     6   ar
     3     1    26    1
     4     2     3   ar
     5     2    27    1
     6     3     4   ar
     7     3     7    1
     8     4     5   ar
     9     4    28    1
    10     5     6   ar
    11     5    14    1
    12     6    29    1
    13     7     8   ar
    14     7    11   ar
    15     8     9   ar
    16     8    12    1
    17     9    10   ar
    18    10    11   ar
    19    11    13    1
    20    12    30    1
    21    13    31    1
    22    13    32    1
    23    13    33    1
    24    14    15   am
    25    14    34    1
    26    15    16    2
    27    15    17    1
    28    17    18    1
    29    17    35    1
    30    17    36    1
    31    18    19   ar
    32    18    23   ar
    33    19    20   ar
    34    19    24    1
    35    20    21   ar
    36    20    37    1
    37    21    22   ar
    38    21    38    1
    39    22    23   ar
    40    22    25    1
    41    23    39    1
    42    24    40    1
    43    24    41    1
    44    24    42    1
    45    25    43    1
    46    25    44    1
    47    25    45    1
@<TRIPOS>SUBSTRUCTURE
     1 LIG1        1 TEMP              0 ****  ****    0 ROOT


##########                                Name:    Z1544592819.****
##########                        Cluster_Size:                   1
##########                          Grid_Score:          -34.934055
##########                     Grid_vdw_energy:          -29.840939
##########                      Grid_es_energy:           -5.093118
##########           Internal_energy_repulsive:            7.060902

@<TRIPOS>MOLECULE
Z1544592819.****
 45 47 1 0 0
SMALL
USER_CHARGES
****

@<TRIPOS>ATOM
      1 C          18.0289  -36.6882   -8.5742 C.ar    1  LIG1       -0.1500
      2 C          19.0918  -37.4951   -8.9756 C.ar    1  LIG1       -0.1500
      3 C          18.8806  -38.4490   -9.9757 C.ar    1  LIG1       -0.0230
      4 C          17.6378  -38.6133  -10.5829 C.ar    1  LIG1       -0.1500
      5 C          16.5923  -37.7983  -10.1588 C.ar    1  LIG1        0.1170
      6 C          16.7762  -36.8366   -9.1647 C.ar    1  LIG1       -0.1500
      7 N          19.9702  -39.2819  -10.3837 N.ar    1  LIG1        0.3260
      8 C          20.1629  -40.5736  -10.0564 C.ar    1  LIG1        0.2420
      9 N          21.2601  -41.0060  -10.6048 N.ar    1  LIG1       -0.3380
     10 N          21.7947  -39.9478  -11.3167 N.ar    1  LIG1       -0.3380
     11 C          21.0106  -38.9356  -11.1714 C.ar    1  LIG1        0.0060
     12 S          19.0584  -41.4639   -9.0426 S.3     1  LIG1       -0.2360
     13 C          21.1787  -37.5547  -11.7677 C.3     1  LIG1       -0.0600
     14 N          15.3270  -37.9483  -10.7456 N.am    1  LIG1       -0.5470
     15 C          14.8059  -37.1426  -11.7105 C.2     1  LIG1        0.5690
     16 O          15.5238  -36.2348  -12.0711 O.2     1  LIG1       -0.5700
     17 C          13.4218  -37.3736  -12.2966 C.3     1  LIG1        0.0440
     18 C          13.5773  -37.8714  -13.7357 C.ar    1  LIG1       -0.1430
     19 C          12.5528  -37.7469  -14.6864 C.ar    1  LIG1       -0.1430
     20 C          12.7643  -38.2083  -15.9846 C.ar    1  LIG1       -0.1500
     21 C          13.9709  -38.7968  -16.3423 C.ar    1  LIG1       -0.1500
     22 C          14.9846  -38.9378  -15.4028 C.ar    1  LIG1       -0.1430
     23 C          14.7785  -38.4833  -14.1040 C.ar    1  LIG1       -0.1500
     24 C          11.2088  -37.1236  -14.3536 C.3     1  LIG1       -0.0970
     25 C          16.2938  -39.5965  -15.7795 C.3     1  LIG1       -0.0970
     26 H          18.1694  -35.9635   -7.8119 H       1  LIG1        0.1500
     27 H          20.0456  -37.3888   -8.5219 H       1  LIG1        0.1500
     28 H          17.4845  -39.3391  -11.3396 H       1  LIG1        0.1500
     29 H          15.9596  -36.2354   -8.8502 H       1  LIG1        0.1500
     30 H          19.7055  -42.6728   -9.1983 H       1  LIG1        0.1800
     31 H          22.0601  -37.5674  -12.4088 H       1  LIG1        0.0800
     32 H          20.2881  -37.3174  -12.3498 H       1  LIG1        0.0800
     33 H          21.3106  -36.8399  -10.9551 H       1  LIG1        0.0800
     34 H          14.7340  -38.7467  -10.4846 H       1  LIG1        0.3700
     35 H          12.8903  -36.4375  -12.2551 H       1  LIG1        0.0800
     36 H          12.9371  -38.1491  -11.7217 H       1  LIG1        0.0800
     37 H          12.0007  -38.1150  -16.7131 H       1  LIG1        0.1500
     38 H          14.1127  -39.1441  -17.3332 H       1  LIG1        0.1500
     39 H          15.5505  -38.6070  -13.3866 H       1  LIG1        0.1500
     40 H          10.5398  -37.2144  -15.2094 H       1  LIG1        0.0800
     41 H          10.7821  -37.6539  -13.5019 H       1  LIG1        0.0800
     42 H          11.3657  -36.0714  -14.1218 H       1  LIG1        0.0800
     43 H          17.0940  -39.1539  -15.1866 H       1  LIG1        0.0800
     44 H          16.2059  -40.6627  -15.5684 H       1  LIG1        0.0800
     45 H          16.4806  -39.4305  -16.8409 H       1  LIG1        0.0800
@<TRIPOS>BOND
     1     1     2   ar
     2     1     6   ar
     3     1    26    1
     4     2     3   ar
     5     2    27    1
     6     3     4   ar
     7     3     7    1
     8     4     5   ar
     9     4    28    1
    10     5     6   ar
    11     5    14    1
    12     6    29    1
    13     7     8   ar
    14     7    11   ar
    15     8     9   ar
    16     8    12    1
    17     9    10   ar
    18    10    11   ar
    19    11    13    1
    20    12    30    1
    21    13    31    1
    22    13    32    1
    23    13    33    1
    24    14    15   am
    25    14    34    1
    26    15    16    2
    27    15    17    1
    28    17    18    1
    29    17    35    1
    30    17    36    1
    31    18    19   ar
    32    18    23   ar
    33    19    20   ar
    34    19    24    1
    35    20    21   ar
    36    20    37    1
    37    21    22   ar
    38    21    38    1
    39    22    23   ar
    40    22    25    1
    41    23    39    1
    42    24    40    1
    43    24    41    1
    44    24    42    1
    45    25    43    1
    46    25    44    1
    47    25    45    1
@<TRIPOS>SUBSTRUCTURE
     1 LIG1        1 TEMP              0 ****  ****    0 ROOT


##########                                Name:    Z1544592819.****
##########                        Cluster_Size:                   1
##########                          Grid_Score:          -34.367550
##########                     Grid_vdw_energy:          -27.817249
##########                      Grid_es_energy:           -6.550300
##########           Internal_energy_repulsive:            7.687161

@<TRIPOS>MOLECULE
Z1544592819.****
 45 47 1 0 0
SMALL
USER_CHARGES
****

@<TRIPOS>ATOM
      1 C          18.1061  -35.6594   -9.0598 C.ar    1  LIG1       -0.1500
      2 C          17.6351  -35.1503  -10.2685 C.ar    1  LIG1       -0.1500
      3 C          17.2900  -36.0388  -11.2915 C.ar    1  LIG1       -0.0230
      4 C          17.4021  -37.4183  -11.1346 C.ar    1  LIG1       -0.1500
      5 C          17.8807  -37.8994   -9.9194 C.ar    1  LIG1        0.1170
      6 C          18.2298  -37.0352   -8.8810 C.ar    1  LIG1       -0.1500
      7 N          16.8123  -35.5162  -12.5349 N.ar    1  LIG1        0.3260
      8 C          17.5004  -35.4276  -13.6888 C.ar    1  LIG1        0.2420
      9 N          16.7486  -34.8977  -14.6082 N.ar    1  LIG1       -0.3380
     10 N          15.5241  -34.6361  -14.0210 N.ar    1  LIG1       -0.3380
     11 C          15.5857  -35.0131  -12.7903 C.ar    1  LIG1        0.0060
     12 S          19.1515  -35.9661  -13.8452 S.3     1  LIG1       -0.2360
     13 C          14.4877  -34.9308  -11.7519 C.3     1  LIG1       -0.0600
     14 N          18.0135  -39.2838   -9.7367 N.am    1  LIG1       -0.5470
     15 C          19.1923  -39.9621   -9.6868 C.2     1  LIG1        0.5690
     16 O          20.1876  -39.2810   -9.8089 O.2     1  LIG1       -0.5700
     17 C          19.2510  -41.4681   -9.4849 C.3     1  LIG1        0.0440
     18 C          19.4373  -42.1372  -10.8490 C.ar    1  LIG1       -0.1430
     19 C          20.1298  -43.3480  -11.0012 C.ar    1  LIG1       -0.1430
     20 C          20.2514  -43.9118  -12.2703 C.ar    1  LIG1       -0.1500
     21 C          19.7044  -43.2842  -13.3825 C.ar    1  LIG1       -0.1500
     22 C          19.0307  -42.0773  -13.2423 C.ar    1  LIG1       -0.1430
     23 C          18.9094  -41.5069  -11.9790 C.ar    1  LIG1       -0.1500
     24 C          20.7591  -44.0759   -9.8266 C.3     1  LIG1       -0.0970
     25 C          18.4503  -41.3774  -14.4519 C.3     1  LIG1       -0.0970
     26 H          18.3789  -34.9996   -8.2748 H       1  LIG1        0.1500
     27 H          17.5469  -34.1020  -10.4097 H       1  LIG1        0.1500
     28 H          17.1398  -38.0859  -11.9145 H       1  LIG1        0.1500
     29 H          18.6038  -37.4265   -7.9678 H       1  LIG1        0.1500
     30 H          19.4926  -35.6778  -12.5394 H       1  LIG1        0.1800
     31 H          13.5900  -34.5486  -12.2376 H       1  LIG1        0.0800
     32 H          14.3098  -35.9304  -11.3553 H       1  LIG1        0.0800
     33 H          14.8090  -34.2531  -10.9606 H       1  LIG1        0.0800
     34 H          17.1775  -39.8611   -9.5782 H       1  LIG1        0.3700
     35 H          18.3288  -41.7700   -9.0168 H       1  LIG1        0.0800
     36 H          20.1153  -41.6937   -8.8775 H       1  LIG1        0.0800
     37 H          20.7669  -44.8286  -12.3977 H       1  LIG1        0.1500
     38 H          19.8090  -43.7263  -14.3396 H       1  LIG1        0.1500
     39 H          18.4068  -40.5776  -11.8798 H       1  LIG1        0.1500
     40 H          21.3197  -44.9386  -10.1866 H       1  LIG1        0.0800
     41 H          21.4364  -43.3904   -9.3166 H       1  LIG1        0.0800
     42 H          19.9634  -44.4080   -9.1616 H       1  LIG1        0.0800
     43 H          17.5598  -40.8280  -14.1472 H       1  LIG1        0.0800
     44 H          19.2071  -40.6948  -14.8397 H       1  LIG1        0.0800
     45 H          18.1888  -42.1250  -15.2014 H       1  LIG1        0.0800
@<TRIPOS>BOND
     1     1     2   ar
     2     1     6   ar
     3     1    26    1
     4     2     3   ar
     5     2    27    1
     6     3     4   ar
     7     3     7    1
     8     4     5   ar
     9     4    28    1
    10     5     6   ar
    11     5    14    1
    12     6    29    1
    13     7     8   ar
    14     7    11   ar
    15     8     9   ar
    16     8    12    1
    17     9    10   ar
    18    10    11   ar
    19    11    13    1
    20    12    30    1
    21    13    31    1
    22    13    32    1
    23    13    33    1
    24    14    15   am
    25    14    34    1
    26    15    16    2
    27    15    17    1
    28    17    18    1
    29    17    35    1
    30    17    36    1
    31    18    19   ar
    32    18    23   ar
    33    19    20   ar
    34    19    24    1
    35    20    21   ar
    36    20    37    1
    37    21    22   ar
    38    21    38    1
    39    22    23   ar
    40    22    25    1
    41    23    39    1
    42    24    40    1
    43    24    41    1
    44    24    42    1
    45    25    43    1
    46    25    44    1
    47    25    45    1
@<TRIPOS>SUBSTRUCTURE
     1 LIG1        1 TEMP              0 ****  ****    0 ROOT

